<configuration>
  <input>
    <net-file value="manhattan.net.xml"/>
    <route-files value="manhattan_keep50.rou.xml"/>
  </input>
  <time>
    <begin value="0"/>
    <end value="100000"/>
    <step-length value="1.0"/>
  </time>
</configuration>
