<?xml version="1.0" encoding="UTF-8"?>

<!-- generated on 2026-03-13 22:32:35.297802 by Eclipse SUMO randomTrips.py v1.26.0
<configuration>
    <net-file value="manhattan.net.xml"/>
    <output-trip-file value="manhattan_keep50.trips.xml"/>
    <route-file value="manhattan_keep50.rou.xml"/>
    <prefix value="veh"/>
    <trip-attributes value="departLane=&quot;best&quot; departSpeed=&quot;max&quot;"/>
    <seed value="1"/>
    <min-distance value="800.0"/>
    <end value="50.0"/>
    <period value="1.0"/>
</configuration>
-->

<!-- generated on 2026-03-13T22:32:35.286525+00:00 by Eclipse SUMO duarouter 1.26.0
<duarouterConfiguration xmlns:xsi="http://www.w3.org/2001/XMLSchema-instance" xsi:noNamespaceSchemaLocation="http://sumo.dlr.de/xsd/duarouterConfiguration.xsd">

    <input>
        <net-file value="manhattan.net.xml"/>
        <route-files value="manhattan_keep50.trips.xml"/>
    </input>

    <output>
        <output-file value="manhattan_keep50.rou.xml"/>
        <alternatives-output value="NUL"/>
    </output>

    <time>
        <begin value="0"/>
        <end value="50.0"/>
    </time>

    <report>
        <no-warnings value="true"/>
        <ignore-errors value="true"/>
        <no-step-log value="true"/>
    </report>

</duarouterConfiguration>
-->

<routes xmlns:xsi="http://www.w3.org/2001/XMLSchema-instance" xsi:noNamespaceSchemaLocation="http://sumo.dlr.de/xsd/routes_file.xsd">
    <vehicle id="veh0" depart="0.00" departLane="best" departSpeed="max">
        <route edges="B5B4 B4C4 C4D4 D4E4 E4F4 F4G4 G4H4 H4I4 I4I3 I3H3"/>
    </vehicle>
    <vehicle id="veh1" depart="1.00" departLane="best" departSpeed="max">
        <route edges="H4I4 I4H4 H4G4 G4F4 F4E4 E4D4 D4C4 C4C5 C5C6 C6C7"/>
    </vehicle>
    <vehicle id="veh2" depart="2.00" departLane="best" departSpeed="max">
        <route edges="E9E8 E8E7 E7E6 E6E5 E5D5"/>
    </vehicle>
    <vehicle id="veh3" depart="3.00" departLane="best" departSpeed="max">
        <route edges="I1J1 J1I1 I1H1 H1G1 G1F1 F1E1 E1E2 E2E3 E3E4"/>
    </vehicle>
    <vehicle id="veh4" depart="4.00" departLane="best" departSpeed="max">
        <route edges="H4I4 I4I3 I3I2 I2I1 I1I0 I0H0 H0G0 G0F0 F0E0 E0D0 D0C0 C0B0 B0A0 A0A1"/>
    </vehicle>
    <vehicle id="veh5" depart="5.00" departLane="best" departSpeed="max">
        <route edges="C4C3 C3D3 D3E3 E3F3 F3G3 G3H3 H3I3 I3J3 J3I3"/>
    </vehicle>
    <vehicle id="veh6" depart="6.00" departLane="best" departSpeed="max">
        <route edges="I7J7 J7J6 J6J5 J5J4 J4I4 I4H4 H4G4 G4F4 F4E4 E4D4 D4C4 C4B4 B4A4 A4A3"/>
    </vehicle>
    <vehicle id="veh7" depart="7.00" departLane="best" departSpeed="max">
        <route edges="A3A4 A4B4 B4C4 C4D4 D4E4 E4F4 F4F3 F3G3"/>
    </vehicle>
    <vehicle id="veh8" depart="8.00" departLane="best" departSpeed="max">
        <route edges="J2J1 J1I1 I1H1 H1G1 G1F1 F1E1 E1D1 D1D2 D2D3 D3D4 D4D5 D5D6 D6D7 D7D8 D8D9"/>
    </vehicle>
    <vehicle id="veh9" depart="9.00" departLane="best" departSpeed="max">
        <route edges="E4D4 D4D5 D5D6 D6D7 D7D8 D8D9 D9E9 E9E8"/>
    </vehicle>
    <vehicle id="veh10" depart="10.00" departLane="best" departSpeed="max">
        <route edges="G3G4 G4F4 F4F3 F3F2 F2F1 F1F0 F0E0 E0D0 D0C0 C0B0"/>
    </vehicle>
    <vehicle id="veh11" depart="11.00" departLane="best" departSpeed="max">
        <route edges="J8J9 J9I9 I9I8 I8I7 I7I6 I6I5 I5I4 I4H4"/>
    </vehicle>
    <vehicle id="veh12" depart="12.00" departLane="best" departSpeed="max">
        <route edges="J2I2 I2H2 H2G2 G2F2 F2E2 E2E3"/>
    </vehicle>
    <vehicle id="veh13" depart="13.00" departLane="best" departSpeed="max">
        <route edges="I1I0 I0H0 H0G0 G0G1 G1G2 G2G3 G3G4 G4G5 G5G6 G6F6"/>
    </vehicle>
    <vehicle id="veh14" depart="14.00" departLane="best" departSpeed="max">
        <route edges="D1D2 D2D3 D3D4 D4D5 D5D6 D6D7 D7D8 D8E8 E8F8 F8E8"/>
    </vehicle>
    <vehicle id="veh15" depart="15.00" departLane="best" departSpeed="max">
        <route edges="I6H6 H6H5 H5H4 H4H3 H3H2 H2I2 I2J2"/>
    </vehicle>
    <vehicle id="veh16" depart="16.00" departLane="best" departSpeed="max">
        <route edges="F0F1 F1F2 F2F3 F3F4 F4F5 F5F6 F6F7 F7F8 F8F7"/>
    </vehicle>
    <vehicle id="veh17" depart="17.00" departLane="best" departSpeed="max">
        <route edges="H8G8 G8G7 G7G6 G6G5 G5G4 G4G3 G3G2 G2F2 F2E2 E2D2"/>
    </vehicle>
    <vehicle id="veh18" depart="18.00" departLane="best" departSpeed="max">
        <route edges="B8C8 C8D8 D8D7 D7D6 D6D5 D5D4 D4E4 E4F4 F4F5"/>
    </vehicle>
    <vehicle id="veh19" depart="19.00" departLane="best" departSpeed="max">
        <route edges="G9F9 F9F8 F8F7 F7G7 G7G6 G6G5"/>
    </vehicle>
    <vehicle id="veh20" depart="20.00" departLane="best" departSpeed="max">
        <route edges="D7E7 E7E6 E6E5 E5E4 E4E3"/>
    </vehicle>
    <vehicle id="veh21" depart="21.00" departLane="best" departSpeed="max">
        <route edges="F1E1 E1E2 E2E3 E3E4 E4E5 E5E6 E6F6 F6G6 G6H6 H6H5"/>
    </vehicle>
    <vehicle id="veh22" depart="22.00" departLane="best" departSpeed="max">
        <route edges="F2E2 E2D2 D2D3 D3D4 D4D5 D5D6 D6D7 D7D8 D8D9 D9E9"/>
    </vehicle>
    <vehicle id="veh23" depart="23.00" departLane="best" departSpeed="max">
        <route edges="E8F8 F8F7 F7F6 F6F5 F5F4 F4F3 F3E3 E3D3 D3C3 C3B3 B3A3 A3B3"/>
    </vehicle>
    <vehicle id="veh24" depart="24.00" departLane="best" departSpeed="max">
        <route edges="A5A6 A6A7 A7A8 A8A9 A9B9 B9C9 C9D9 D9E9 E9F9 F9G9 G9F9"/>
    </vehicle>
    <vehicle id="veh25" depart="25.00" departLane="best" departSpeed="max">
        <route edges="J7J6 J6I6 I6H6 H6G6 G6F6 F6F7 F7F8 F8F9"/>
    </vehicle>
    <vehicle id="veh26" depart="26.00" departLane="best" departSpeed="max">
        <route edges="F0E0 E0E1 E1E2 E2E3 E3E4 E4E5 E5E6 E6E7 E7F7 F7G7 G7H7 H7I7 I7J7 J7J6"/>
    </vehicle>
    <vehicle id="veh27" depart="27.00" departLane="best" departSpeed="max">
        <route edges="I4H4 H4G4 G4F4 F4E4 E4D4 D4C4 C4C5"/>
    </vehicle>
    <vehicle id="veh28" depart="28.00" departLane="best" departSpeed="max">
        <route edges="F1F0 F0G0 G0H0 H0I0 I0J0 J0J1 J1J2 J2J3 J3J4"/>
    </vehicle>
    <vehicle id="veh29" depart="29.00" departLane="best" departSpeed="max">
        <route edges="J4J3 J3J2 J2I2 I2H2 H2G2 G2F2 F2E2 E2D2 D2C2 C2B2 B2A2 A2A1 A1A0"/>
    </vehicle>
    <vehicle id="veh30" depart="30.00" departLane="best" departSpeed="max">
        <route edges="H6I6 I6I5 I5I4 I4I3 I3I2 I2I1 I1I0 I0I1"/>
    </vehicle>
    <vehicle id="veh31" depart="31.00" departLane="best" departSpeed="max">
        <route edges="I6I7 I7H7 H7H6 H6H5 H5H4 H4H3 H3H2 H2I2"/>
    </vehicle>
    <vehicle id="veh32" depart="32.00" departLane="best" departSpeed="max">
        <route edges="H9G9 G9F9 F9F8 F8F7 F7F6 F6F5 F5F4 F4F3 F3F2 F2F1 F1G1"/>
    </vehicle>
    <vehicle id="veh33" depart="33.00" departLane="best" departSpeed="max">
        <route edges="A7A6 A6B6 B6C6 C6D6 D6E6 E6F6 F6G6 G6H6 H6I6 I6I5 I5H5"/>
    </vehicle>
    <vehicle id="veh34" depart="34.00" departLane="best" departSpeed="max">
        <route edges="F6F7 F7E7 E7E6 E6E5 E5E4 E4E3 E3E2 E2E1 E1D1 D1C1 C1C2"/>
    </vehicle>
    <vehicle id="veh35" depart="35.00" departLane="best" departSpeed="max">
        <route edges="F0F1 F1F2 F2F3 F3F4 F4F5 F5F6 F6F7 F7F8 F8E8 E8E7"/>
    </vehicle>
    <vehicle id="veh36" depart="36.00" departLane="best" departSpeed="max">
        <route edges="G0H0 H0G0 G0F0 F0E0 E0E1 E1E2 E2E3 E3E4 E4E5 E5F5"/>
    </vehicle>
    <vehicle id="veh37" depart="37.00" departLane="best" departSpeed="max">
        <route edges="B9A9 A9A8 A8A7 A7B7 B7C7 C7D7 D7E7 E7F7 F7G7"/>
    </vehicle>
    <vehicle id="veh38" depart="38.00" departLane="best" departSpeed="max">
        <route edges="I4H4 H4H5 H5H6 H6H7 H7H8 H8G8"/>
    </vehicle>
    <vehicle id="veh39" depart="39.00" departLane="best" departSpeed="max">
        <route edges="C6C7 C7D7 D7E7 E7F7 F7G7 G7H7 H7H6 H6H5 H5H4 H4H3 H3H2 H2I2 I2I3"/>
    </vehicle>
    <vehicle id="veh40" depart="40.00" departLane="best" departSpeed="max">
        <route edges="G6G5 G5G4 G4G3 G3G2 G2G1 G1G0 G0F0 F0E0 E0D0 D0C0 C0B0 B0B1"/>
    </vehicle>
    <vehicle id="veh41" depart="41.00" departLane="best" departSpeed="max">
        <route edges="H4H3 H3G3 G3F3 F3E3 E3D3 D3C3 C3C4 C4C5 C5C6 C6B6"/>
    </vehicle>
    <vehicle id="veh42" depart="42.00" departLane="best" departSpeed="max">
        <route edges="B3A3 A3A2 A2A1 A1B1 B1C1 C1D1 D1E1 E1F1 F1G1 G1H1"/>
    </vehicle>
    <vehicle id="veh43" depart="43.00" departLane="best" departSpeed="max">
        <route edges="B7B8 B8C8 C8D8 D8E8 E8E7 E7E6 E6E5 E5E4 E4E3 E3E2 E2F2 F2F3"/>
    </vehicle>
    <vehicle id="veh44" depart="44.00" departLane="best" departSpeed="max">
        <route edges="H0G0 G0F0 F0E0 E0E1 E1E2 E2E3 E3E4 E4E5 E5E6"/>
    </vehicle>
    <vehicle id="veh45" depart="45.00" departLane="best" departSpeed="max">
        <route edges="A3A2 A2B2 B2C2 C2D2 D2D3 D3D4 D4D5 D5D6 D6D7 D7D8 D8D9 D9C9"/>
    </vehicle>
    <vehicle id="veh46" depart="46.00" departLane="best" departSpeed="max">
        <route edges="B3A3 A3A4 A4A5 A5A6 A6A7 A7B7 B7C7 C7D7 D7E7 E7F7 F7G7 G7H7 H7I7 I7I8"/>
    </vehicle>
    <vehicle id="veh47" depart="47.00" departLane="best" departSpeed="max">
        <route edges="B6B5 B5B4 B4B3 B3B2 B2B1 B1B0 B0C0 C0D0 D0E0 E0F0 F0G0 G0H0 H0I0"/>
    </vehicle>
    <vehicle id="veh48" depart="48.00" departLane="best" departSpeed="max">
        <route edges="B7B8 B8C8 C8D8 D8E8 E8F8 F8G8 G8G9 G9F9"/>
    </vehicle>
    <vehicle id="veh49" depart="49.00" departLane="best" departSpeed="max">
        <route edges="C3C4 C4C5 C5D5 D5E5 E5F5 F5G5 G5H5 H5I5 I5J5 J5J6 J6J7"/>
    </vehicle>
</routes>
