<?xml version="1.0" encoding="UTF-8"?>

<!-- generated on 2026-03-01 18:26:38.651228 by Eclipse SUMO randomTrips.py v1.26.0
<configuration>
    <net-file value="manhattan.net.xml"/>
    <output-trip-file value="manhattan.trips.xml"/>
    <route-file value="manhattan.rou.xml"/>
    <prefix value="veh"/>
    <trip-attributes value="departLane=&quot;best&quot; departSpeed=&quot;max&quot;"/>
    <seed value="1"/>
    <min-distance value="500.0"/>
    <end value="250000.0"/>
    <period value="25.0"/>
</configuration>
-->

<routes xmlns:xsi="http://www.w3.org/2001/XMLSchema-instance" xsi:noNamespaceSchemaLocation="http://sumo.dlr.de/xsd/routes_file.xsd">
    <trip id="veh0" depart="0.00" from="B5B4" to="I3H3" departLane="best" departSpeed="max"/>
    <trip id="veh1" depart="25.00" from="H4I4" to="C6C7" departLane="best" departSpeed="max"/>
    <trip id="veh2" depart="50.00" from="E9E8" to="E5D5" departLane="best" departSpeed="max"/>
    <trip id="veh3" depart="75.00" from="G4G3" to="H7G7" departLane="best" departSpeed="max"/>
    <trip id="veh4" depart="100.00" from="I1J1" to="E3E4" departLane="best" departSpeed="max"/>
    <trip id="veh5" depart="125.00" from="H4I4" to="A0A1" departLane="best" departSpeed="max"/>
    <trip id="veh6" depart="150.00" from="E4F4" to="H1G1" departLane="best" departSpeed="max"/>
    <trip id="veh7" depart="175.00" from="C4C3" to="J3I3" departLane="best" departSpeed="max"/>
    <trip id="veh8" depart="200.00" from="I7J7" to="A4A3" departLane="best" departSpeed="max"/>
    <trip id="veh9" depart="225.00" from="A3A4" to="F3G3" departLane="best" departSpeed="max"/>
    <trip id="veh10" depart="250.00" from="J2J1" to="D8D9" departLane="best" departSpeed="max"/>
    <trip id="veh11" depart="275.00" from="E4D4" to="E9E8" departLane="best" departSpeed="max"/>
    <trip id="veh12" depart="300.00" from="C3C2" to="E6D6" departLane="best" departSpeed="max"/>
    <trip id="veh13" depart="325.00" from="D0C0" to="A2B2" departLane="best" departSpeed="max"/>
    <trip id="veh14" depart="350.00" from="I2H2" to="F5F4" departLane="best" departSpeed="max"/>
    <trip id="veh15" depart="375.00" from="G3G4" to="C0B0" departLane="best" departSpeed="max"/>
    <trip id="veh16" depart="400.00" from="J8J9" to="I4H4" departLane="best" departSpeed="max"/>
    <trip id="veh17" depart="425.00" from="J2I2" to="E2E3" departLane="best" departSpeed="max"/>
    <trip id="veh18" depart="450.00" from="I1I0" to="G6F6" departLane="best" departSpeed="max"/>
    <trip id="veh19" depart="475.00" from="D1D2" to="F8E8" departLane="best" departSpeed="max"/>
    <trip id="veh20" depart="500.00" from="I6H6" to="I2J2" departLane="best" departSpeed="max"/>
    <trip id="veh21" depart="525.00" from="F0F1" to="F8F7" departLane="best" departSpeed="max"/>
    <trip id="veh22" depart="550.00" from="A4A5" to="C5C6" departLane="best" departSpeed="max"/>
    <trip id="veh23" depart="575.00" from="H8G8" to="E2D2" departLane="best" departSpeed="max"/>
    <trip id="veh24" depart="600.00" from="B8C8" to="F4F5" departLane="best" departSpeed="max"/>
    <trip id="veh25" depart="625.00" from="G9F9" to="G6G5" departLane="best" departSpeed="max"/>
    <trip id="veh26" depart="650.00" from="D7E7" to="E4E3" departLane="best" departSpeed="max"/>
    <trip id="veh27" depart="675.00" from="F1E1" to="H6H5" departLane="best" departSpeed="max"/>
    <trip id="veh28" depart="700.00" from="F2E2" to="D9E9" departLane="best" departSpeed="max"/>
    <trip id="veh29" depart="725.00" from="E8F8" to="A3B3" departLane="best" departSpeed="max"/>
    <trip id="veh30" depart="750.00" from="A5A6" to="G9F9" departLane="best" departSpeed="max"/>
    <trip id="veh31" depart="775.00" from="J7J6" to="F8F9" departLane="best" departSpeed="max"/>
    <trip id="veh32" depart="800.00" from="F0E0" to="J7J6" departLane="best" departSpeed="max"/>
    <trip id="veh33" depart="825.00" from="I4H4" to="C4C5" departLane="best" departSpeed="max"/>
    <trip id="veh34" depart="850.00" from="F1F0" to="J3J4" departLane="best" departSpeed="max"/>
    <trip id="veh35" depart="875.00" from="C7D7" to="F4F5" departLane="best" departSpeed="max"/>
    <trip id="veh36" depart="900.00" from="J4J3" to="A1A0" departLane="best" departSpeed="max"/>
    <trip id="veh37" depart="925.00" from="H6I6" to="I0I1" departLane="best" departSpeed="max"/>
    <trip id="veh38" depart="950.00" from="I6I7" to="H2I2" departLane="best" departSpeed="max"/>
    <trip id="veh39" depart="975.00" from="H9G9" to="F1G1" departLane="best" departSpeed="max"/>
    <trip id="veh40" depart="1000.00" from="F5G5" to="E3D3" departLane="best" departSpeed="max"/>
    <trip id="veh41" depart="1025.00" from="A7A6" to="I5H5" departLane="best" departSpeed="max"/>
    <trip id="veh42" depart="1050.00" from="F6F7" to="C1C2" departLane="best" departSpeed="max"/>
    <trip id="veh43" depart="1075.00" from="F0F1" to="E8E7" departLane="best" departSpeed="max"/>
    <trip id="veh44" depart="1100.00" from="F3F4" to="G1H1" departLane="best" departSpeed="max"/>
    <trip id="veh45" depart="1125.00" from="G0H0" to="E5F5" departLane="best" departSpeed="max"/>
    <trip id="veh46" depart="1150.00" from="B9A9" to="F7G7" departLane="best" departSpeed="max"/>
    <trip id="veh47" depart="1175.00" from="I4H4" to="H8G8" departLane="best" departSpeed="max"/>
    <trip id="veh48" depart="1200.00" from="C6C7" to="I2I3" departLane="best" departSpeed="max"/>
    <trip id="veh49" depart="1225.00" from="G6G5" to="B0B1" departLane="best" departSpeed="max"/>
    <trip id="veh50" depart="1250.00" from="H4H3" to="C6B6" departLane="best" departSpeed="max"/>
    <trip id="veh51" depart="1275.00" from="B3A3" to="G1H1" departLane="best" departSpeed="max"/>
    <trip id="veh52" depart="1300.00" from="D5C5" to="A8B8" departLane="best" departSpeed="max"/>
    <trip id="veh53" depart="1325.00" from="B7B8" to="F2F3" departLane="best" departSpeed="max"/>
    <trip id="veh54" depart="1350.00" from="H0G0" to="E5E6" departLane="best" departSpeed="max"/>
    <trip id="veh55" depart="1375.00" from="D3C3" to="E7E6" departLane="best" departSpeed="max"/>
    <trip id="veh56" depart="1400.00" from="A3A2" to="D9C9" departLane="best" departSpeed="max"/>
    <trip id="veh57" depart="1425.00" from="B3A3" to="I7I8" departLane="best" departSpeed="max"/>
    <trip id="veh58" depart="1450.00" from="F1E1" to="C2C3" departLane="best" departSpeed="max"/>
    <trip id="veh59" depart="1475.00" from="B6B5" to="H0I0" departLane="best" departSpeed="max"/>
    <trip id="veh60" depart="1500.00" from="B7B8" to="G9F9" departLane="best" departSpeed="max"/>
    <trip id="veh61" depart="1525.00" from="G6H6" to="F4F3" departLane="best" departSpeed="max"/>
    <trip id="veh62" depart="1550.00" from="C3C4" to="J6J7" departLane="best" departSpeed="max"/>
    <trip id="veh63" depart="1575.00" from="H8G8" to="F1F2" departLane="best" departSpeed="max"/>
    <trip id="veh64" depart="1600.00" from="C3D3" to="G4F4" departLane="best" departSpeed="max"/>
    <trip id="veh65" depart="1625.00" from="E0D0" to="F7E7" departLane="best" departSpeed="max"/>
    <trip id="veh66" depart="1650.00" from="D3C3" to="G2G3" departLane="best" departSpeed="max"/>
    <trip id="veh67" depart="1675.00" from="A7A8" to="D1C1" departLane="best" departSpeed="max"/>
    <trip id="veh68" depart="1700.00" from="D1E1" to="I4H4" departLane="best" departSpeed="max"/>
    <trip id="veh69" depart="1725.00" from="D2C2" to="J2J1" departLane="best" departSpeed="max"/>
    <trip id="veh70" depart="1750.00" from="H3G3" to="E2D2" departLane="best" departSpeed="max"/>
    <trip id="veh71" depart="1775.00" from="C6C5" to="A1A2" departLane="best" departSpeed="max"/>
    <trip id="veh72" depart="1800.00" from="I5J5" to="A4B4" departLane="best" departSpeed="max"/>
    <trip id="veh73" depart="1825.00" from="I0H0" to="J5I5" departLane="best" departSpeed="max"/>
    <trip id="veh74" depart="1850.00" from="F6F7" to="B8B9" departLane="best" departSpeed="max"/>
    <trip id="veh75" depart="1875.00" from="G9F9" to="F1E1" departLane="best" departSpeed="max"/>
    <trip id="veh76" depart="1900.00" from="D8D7" to="D5D4" departLane="best" departSpeed="max"/>
    <trip id="veh77" depart="1925.00" from="C2C1" to="G6G5" departLane="best" departSpeed="max"/>
    <trip id="veh78" depart="1950.00" from="E3E4" to="C1B1" departLane="best" departSpeed="max"/>
    <trip id="veh79" depart="1975.00" from="B2B3" to="G5G6" departLane="best" departSpeed="max"/>
    <trip id="veh80" depart="2000.00" from="D0E0" to="E9F9" departLane="best" departSpeed="max"/>
    <trip id="veh81" depart="2025.00" from="D3D4" to="I5H5" departLane="best" departSpeed="max"/>
    <trip id="veh82" depart="2050.00" from="I7I8" to="A2A3" departLane="best" departSpeed="max"/>
    <trip id="veh83" depart="2075.00" from="C1D1" to="D3D4" departLane="best" departSpeed="max"/>
    <trip id="veh84" depart="2100.00" from="G6G5" to="I2H2" departLane="best" departSpeed="max"/>
    <trip id="veh85" depart="2125.00" from="J1J0" to="D5C5" departLane="best" departSpeed="max"/>
    <trip id="veh86" depart="2150.00" from="I6H6" to="G7G8" departLane="best" departSpeed="max"/>
    <trip id="veh87" depart="2175.00" from="E8E7" to="J7J8" departLane="best" departSpeed="max"/>
    <trip id="veh88" depart="2200.00" from="C4D4" to="H1H2" departLane="best" departSpeed="max"/>
    <trip id="veh89" depart="2225.00" from="B0C0" to="B8B9" departLane="best" departSpeed="max"/>
    <trip id="veh90" depart="2250.00" from="I8I9" to="C2D2" departLane="best" departSpeed="max"/>
    <trip id="veh91" depart="2275.00" from="H4H5" to="F9F8" departLane="best" departSpeed="max"/>
    <trip id="veh92" depart="2300.00" from="I2I1" to="D7D6" departLane="best" departSpeed="max"/>
    <trip id="veh93" depart="2325.00" from="D4E4" to="D0C0" departLane="best" departSpeed="max"/>
    <trip id="veh94" depart="2350.00" from="I4J4" to="F9G9" departLane="best" departSpeed="max"/>
    <trip id="veh95" depart="2375.00" from="J4I4" to="I6I7" departLane="best" departSpeed="max"/>
    <trip id="veh96" depart="2400.00" from="B5B4" to="F4G4" departLane="best" departSpeed="max"/>
    <trip id="veh97" depart="2425.00" from="A9A8" to="I4I5" departLane="best" departSpeed="max"/>
    <trip id="veh98" depart="2450.00" from="H7G7" to="I1I0" departLane="best" departSpeed="max"/>
    <trip id="veh99" depart="2475.00" from="D4E4" to="G1F1" departLane="best" departSpeed="max"/>
    <trip id="veh100" depart="2500.00" from="H6H7" to="D8D7" departLane="best" departSpeed="max"/>
    <trip id="veh101" depart="2525.00" from="F6F7" to="C3D3" departLane="best" departSpeed="max"/>
    <trip id="veh102" depart="2550.00" from="B0B1" to="C7D7" departLane="best" departSpeed="max"/>
    <trip id="veh103" depart="2575.00" from="I6J6" to="F6E6" departLane="best" departSpeed="max"/>
    <trip id="veh104" depart="2600.00" from="J0J1" to="E5F5" departLane="best" departSpeed="max"/>
    <trip id="veh105" depart="2625.00" from="C8C9" to="H7G7" departLane="best" departSpeed="max"/>
    <trip id="veh106" depart="2650.00" from="I1H1" to="A1B1" departLane="best" departSpeed="max"/>
    <trip id="veh107" depart="2675.00" from="G6F6" to="B1B2" departLane="best" departSpeed="max"/>
    <trip id="veh108" depart="2700.00" from="B3B4" to="I6I5" departLane="best" departSpeed="max"/>
    <trip id="veh109" depart="2725.00" from="J8I8" to="E2E3" departLane="best" departSpeed="max"/>
    <trip id="veh110" depart="2750.00" from="B3B4" to="B8B7" departLane="best" departSpeed="max"/>
    <trip id="veh111" depart="2775.00" from="C5C4" to="H3G3" departLane="best" departSpeed="max"/>
    <trip id="veh112" depart="2800.00" from="B2B3" to="I8I9" departLane="best" departSpeed="max"/>
    <trip id="veh113" depart="2825.00" from="D8D7" to="J6I6" departLane="best" departSpeed="max"/>
    <trip id="veh114" depart="2850.00" from="I8I9" to="D0D1" departLane="best" departSpeed="max"/>
    <trip id="veh115" depart="2875.00" from="C6C7" to="E7E8" departLane="best" departSpeed="max"/>
    <trip id="veh116" depart="2900.00" from="B2B1" to="G4G3" departLane="best" departSpeed="max"/>
    <trip id="veh117" depart="2925.00" from="A5A4" to="A1A2" departLane="best" departSpeed="max"/>
    <trip id="veh118" depart="2950.00" from="J7J6" to="D0E0" departLane="best" departSpeed="max"/>
    <trip id="veh119" depart="2975.00" from="F8G8" to="E5D5" departLane="best" departSpeed="max"/>
    <trip id="veh120" depart="3000.00" from="D2D1" to="A7B7" departLane="best" departSpeed="max"/>
    <trip id="veh121" depart="3025.00" from="J6I6" to="B3B2" departLane="best" departSpeed="max"/>
    <trip id="veh122" depart="3050.00" from="C3B3" to="G1G0" departLane="best" departSpeed="max"/>
    <trip id="veh123" depart="3075.00" from="J7I7" to="F4E4" departLane="best" departSpeed="max"/>
    <trip id="veh124" depart="3100.00" from="G7G8" to="G5G4" departLane="best" departSpeed="max"/>
    <trip id="veh125" depart="3125.00" from="C7B7" to="F3G3" departLane="best" departSpeed="max"/>
    <trip id="veh126" depart="3150.00" from="D1E1" to="C5D5" departLane="best" departSpeed="max"/>
    <trip id="veh127" depart="3175.00" from="B0B1" to="C9B9" departLane="best" departSpeed="max"/>
    <trip id="veh128" depart="3200.00" from="J7J8" to="E5D5" departLane="best" departSpeed="max"/>
    <trip id="veh129" depart="3225.00" from="J2J1" to="D9D8" departLane="best" departSpeed="max"/>
    <trip id="veh130" depart="3250.00" from="D1E1" to="D3D4" departLane="best" departSpeed="max"/>
    <trip id="veh131" depart="3275.00" from="D2E2" to="I2J2" departLane="best" departSpeed="max"/>
    <trip id="veh132" depart="3300.00" from="I7H7" to="D1D2" departLane="best" departSpeed="max"/>
    <trip id="veh133" depart="3325.00" from="C5D5" to="A2B2" departLane="best" departSpeed="max"/>
    <trip id="veh134" depart="3350.00" from="C5C6" to="A9A8" departLane="best" departSpeed="max"/>
    <trip id="veh135" depart="3375.00" from="F4G4" to="A8B8" departLane="best" departSpeed="max"/>
    <trip id="veh136" depart="3400.00" from="A9B9" to="G2H2" departLane="best" departSpeed="max"/>
    <trip id="veh137" depart="3425.00" from="D0C0" to="H7H8" departLane="best" departSpeed="max"/>
    <trip id="veh138" depart="3450.00" from="E9D9" to="I4I3" departLane="best" departSpeed="max"/>
    <trip id="veh139" depart="3475.00" from="B7A7" to="F0E0" departLane="best" departSpeed="max"/>
    <trip id="veh140" depart="3500.00" from="H7I7" to="A9B9" departLane="best" departSpeed="max"/>
    <trip id="veh141" depart="3525.00" from="J3J2" to="B8C8" departLane="best" departSpeed="max"/>
    <trip id="veh142" depart="3550.00" from="H6G6" to="J7J8" departLane="best" departSpeed="max"/>
    <trip id="veh143" depart="3575.00" from="I0I1" to="D3C3" departLane="best" departSpeed="max"/>
    <trip id="veh144" depart="3600.00" from="B2C2" to="F1F2" departLane="best" departSpeed="max"/>
    <trip id="veh145" depart="3625.00" from="I9I8" to="D0D1" departLane="best" departSpeed="max"/>
    <trip id="veh146" depart="3650.00" from="I7H7" to="B6A6" departLane="best" departSpeed="max"/>
    <trip id="veh147" depart="3675.00" from="I8I9" to="A4A3" departLane="best" departSpeed="max"/>
    <trip id="veh148" depart="3700.00" from="D2D3" to="I8H8" departLane="best" departSpeed="max"/>
    <trip id="veh149" depart="3725.00" from="G7H7" to="B9B8" departLane="best" departSpeed="max"/>
    <trip id="veh150" depart="3750.00" from="E3E4" to="B7B6" departLane="best" departSpeed="max"/>
    <trip id="veh151" depart="3775.00" from="H0H1" to="G5H5" departLane="best" departSpeed="max"/>
    <trip id="veh152" depart="3800.00" from="J5I5" to="H8I8" departLane="best" departSpeed="max"/>
    <trip id="veh153" depart="3825.00" from="I3I2" to="E5E6" departLane="best" departSpeed="max"/>
    <trip id="veh154" depart="3850.00" from="E0D0" to="D4D5" departLane="best" departSpeed="max"/>
    <trip id="veh155" depart="3875.00" from="C6D6" to="A3A2" departLane="best" departSpeed="max"/>
    <trip id="veh156" depart="3900.00" from="G3H3" to="E2E1" departLane="best" departSpeed="max"/>
    <trip id="veh157" depart="3925.00" from="F6F7" to="A7B7" departLane="best" departSpeed="max"/>
    <trip id="veh158" depart="3950.00" from="B4B5" to="C7B7" departLane="best" departSpeed="max"/>
    <trip id="veh159" depart="3975.00" from="I1I0" to="E0E1" departLane="best" departSpeed="max"/>
    <trip id="veh160" depart="4000.00" from="E0F0" to="G0H0" departLane="best" departSpeed="max"/>
    <trip id="veh161" depart="4025.00" from="C4D4" to="A1A0" departLane="best" departSpeed="max"/>
    <trip id="veh162" depart="4050.00" from="G4F4" to="E4D4" departLane="best" departSpeed="max"/>
    <trip id="veh163" depart="4075.00" from="G7G8" to="H2G2" departLane="best" departSpeed="max"/>
    <trip id="veh164" depart="4100.00" from="C5B5" to="E9E8" departLane="best" departSpeed="max"/>
    <trip id="veh165" depart="4125.00" from="E7F7" to="C4B4" departLane="best" departSpeed="max"/>
    <trip id="veh166" depart="4150.00" from="E1F1" to="F5F6" departLane="best" departSpeed="max"/>
    <trip id="veh167" depart="4175.00" from="C8C9" to="G3H3" departLane="best" departSpeed="max"/>
    <trip id="veh168" depart="4200.00" from="F1F0" to="I5I6" departLane="best" departSpeed="max"/>
    <trip id="veh169" depart="4225.00" from="B7B8" to="H5G5" departLane="best" departSpeed="max"/>
    <trip id="veh170" depart="4250.00" from="I6H6" to="D2D1" departLane="best" departSpeed="max"/>
    <trip id="veh171" depart="4275.00" from="G8F8" to="I3H3" departLane="best" departSpeed="max"/>
    <trip id="veh172" depart="4300.00" from="D7D8" to="G8H8" departLane="best" departSpeed="max"/>
    <trip id="veh173" depart="4325.00" from="H2H3" to="F8G8" departLane="best" departSpeed="max"/>
    <trip id="veh174" depart="4350.00" from="I3J3" to="I7I6" departLane="best" departSpeed="max"/>
    <trip id="veh175" depart="4375.00" from="J4J5" to="F6F7" departLane="best" departSpeed="max"/>
    <trip id="veh176" depart="4400.00" from="B9A9" to="C6C5" departLane="best" departSpeed="max"/>
    <trip id="veh177" depart="4425.00" from="C3C2" to="F6F7" departLane="best" departSpeed="max"/>
    <trip id="veh178" depart="4450.00" from="H4H3" to="A6A7" departLane="best" departSpeed="max"/>
    <trip id="veh179" depart="4475.00" from="G7F7" to="H0I0" departLane="best" departSpeed="max"/>
    <trip id="veh180" depart="4500.00" from="D5D6" to="F1F2" departLane="best" departSpeed="max"/>
    <trip id="veh181" depart="4525.00" from="B8A8" to="H1I1" departLane="best" departSpeed="max"/>
    <trip id="veh182" depart="4550.00" from="A5A4" to="J7J6" departLane="best" departSpeed="max"/>
    <trip id="veh183" depart="4575.00" from="H8I8" to="G2G1" departLane="best" departSpeed="max"/>
    <trip id="veh184" depart="4600.00" from="C7D7" to="I8J8" departLane="best" departSpeed="max"/>
    <trip id="veh185" depart="4625.00" from="J4J5" to="B5C5" departLane="best" departSpeed="max"/>
    <trip id="veh186" depart="4650.00" from="H6G6" to="I2I3" departLane="best" departSpeed="max"/>
    <trip id="veh187" depart="4675.00" from="G5F5" to="G8H8" departLane="best" departSpeed="max"/>
    <trip id="veh188" depart="4700.00" from="E4F4" to="J0I0" departLane="best" departSpeed="max"/>
    <trip id="veh189" depart="4725.00" from="J6I6" to="D8D9" departLane="best" departSpeed="max"/>
    <trip id="veh190" depart="4750.00" from="H8H7" to="E3E4" departLane="best" departSpeed="max"/>
    <trip id="veh191" depart="4775.00" from="B8A8" to="D3D4" departLane="best" departSpeed="max"/>
    <trip id="veh192" depart="4800.00" from="B4B5" to="I8I9" departLane="best" departSpeed="max"/>
    <trip id="veh193" depart="4825.00" from="J4J5" to="B3C3" departLane="best" departSpeed="max"/>
    <trip id="veh194" depart="4850.00" from="F9F8" to="E1E0" departLane="best" departSpeed="max"/>
    <trip id="veh195" depart="4875.00" from="B3C3" to="D0E0" departLane="best" departSpeed="max"/>
    <trip id="veh196" depart="4900.00" from="C6B6" to="H3H4" departLane="best" departSpeed="max"/>
    <trip id="veh197" depart="4925.00" from="A0B0" to="C0D0" departLane="best" departSpeed="max"/>
    <trip id="veh198" depart="4950.00" from="E4D4" to="A2B2" departLane="best" departSpeed="max"/>
    <trip id="veh199" depart="4975.00" from="I1J1" to="C2C1" departLane="best" departSpeed="max"/>
    <trip id="veh200" depart="5000.00" from="C9C8" to="F4E4" departLane="best" departSpeed="max"/>
    <trip id="veh201" depart="5025.00" from="C8C7" to="F7G7" departLane="best" departSpeed="max"/>
    <trip id="veh202" depart="5050.00" from="C6C5" to="G7G6" departLane="best" departSpeed="max"/>
    <trip id="veh203" depart="5075.00" from="J6J5" to="F4F3" departLane="best" departSpeed="max"/>
    <trip id="veh204" depart="5100.00" from="E8F8" to="I3J3" departLane="best" departSpeed="max"/>
    <trip id="veh205" depart="5125.00" from="H5H4" to="F6F7" departLane="best" departSpeed="max"/>
    <trip id="veh206" depart="5150.00" from="B2C2" to="H8I8" departLane="best" departSpeed="max"/>
    <trip id="veh207" depart="5175.00" from="B3C3" to="H3H4" departLane="best" departSpeed="max"/>
    <trip id="veh208" depart="5200.00" from="F4F3" to="J5J4" departLane="best" departSpeed="max"/>
    <trip id="veh209" depart="5225.00" from="B5B6" to="F0E0" departLane="best" departSpeed="max"/>
    <trip id="veh210" depart="5250.00" from="F6G6" to="D2D1" departLane="best" departSpeed="max"/>
    <trip id="veh211" depart="5275.00" from="F0F1" to="D6D5" departLane="best" departSpeed="max"/>
    <trip id="veh212" depart="5300.00" from="F2G2" to="A0A1" departLane="best" departSpeed="max"/>
    <trip id="veh213" depart="5325.00" from="E9D9" to="G4F4" departLane="best" departSpeed="max"/>
    <trip id="veh214" depart="5350.00" from="D8C8" to="C2B2" departLane="best" departSpeed="max"/>
    <trip id="veh215" depart="5375.00" from="A0B0" to="C8C9" departLane="best" departSpeed="max"/>
    <trip id="veh216" depart="5400.00" from="F9E9" to="I6H6" departLane="best" departSpeed="max"/>
    <trip id="veh217" depart="5425.00" from="I1I0" to="F1E1" departLane="best" departSpeed="max"/>
    <trip id="veh218" depart="5450.00" from="J8I8" to="E6E5" departLane="best" departSpeed="max"/>
    <trip id="veh219" depart="5475.00" from="I1J1" to="E1E2" departLane="best" departSpeed="max"/>
    <trip id="veh220" depart="5500.00" from="H3H2" to="J8I8" departLane="best" departSpeed="max"/>
    <trip id="veh221" depart="5525.00" from="D1D2" to="B8B9" departLane="best" departSpeed="max"/>
    <trip id="veh222" depart="5550.00" from="G1G2" to="F3E3" departLane="best" departSpeed="max"/>
    <trip id="veh223" depart="5575.00" from="D6D7" to="A0B0" departLane="best" departSpeed="max"/>
    <trip id="veh224" depart="5600.00" from="D9D8" to="E3D3" departLane="best" departSpeed="max"/>
    <trip id="veh225" depart="5625.00" from="E1D1" to="I4I3" departLane="best" departSpeed="max"/>
    <trip id="veh226" depart="5650.00" from="F7G7" to="H2H1" departLane="best" departSpeed="max"/>
    <trip id="veh227" depart="5675.00" from="I7I8" to="H3H4" departLane="best" departSpeed="max"/>
    <trip id="veh228" depart="5700.00" from="E9D9" to="H3H2" departLane="best" departSpeed="max"/>
    <trip id="veh229" depart="5725.00" from="G2G1" to="E1E0" departLane="best" departSpeed="max"/>
    <trip id="veh230" depart="5750.00" from="J2I2" to="H6H7" departLane="best" departSpeed="max"/>
    <trip id="veh231" depart="5775.00" from="D5D6" to="C7C8" departLane="best" departSpeed="max"/>
    <trip id="veh232" depart="5800.00" from="G9G8" to="I5I4" departLane="best" departSpeed="max"/>
    <trip id="veh233" depart="5825.00" from="F4E4" to="B6C6" departLane="best" departSpeed="max"/>
    <trip id="veh234" depart="5850.00" from="I1I2" to="E8E7" departLane="best" departSpeed="max"/>
    <trip id="veh235" depart="5875.00" from="E6F6" to="A5B5" departLane="best" departSpeed="max"/>
    <trip id="veh236" depart="5900.00" from="E2F2" to="D6C6" departLane="best" departSpeed="max"/>
    <trip id="veh237" depart="5925.00" from="G4H4" to="A2B2" departLane="best" departSpeed="max"/>
    <trip id="veh238" depart="5950.00" from="F0G0" to="J3I3" departLane="best" departSpeed="max"/>
    <trip id="veh239" depart="5975.00" from="G7H7" to="E0F0" departLane="best" departSpeed="max"/>
    <trip id="veh240" depart="6000.00" from="I6I5" to="C7D7" departLane="best" departSpeed="max"/>
    <trip id="veh241" depart="6025.00" from="A9A8" to="I1I2" departLane="best" departSpeed="max"/>
    <trip id="veh242" depart="6050.00" from="F2F1" to="D7D6" departLane="best" departSpeed="max"/>
    <trip id="veh243" depart="6075.00" from="F1F0" to="H2H3" departLane="best" departSpeed="max"/>
    <trip id="veh244" depart="6100.00" from="B8B7" to="G4G5" departLane="best" departSpeed="max"/>
    <trip id="veh245" depart="6125.00" from="H0G0" to="H9I9" departLane="best" departSpeed="max"/>
    <trip id="veh246" depart="6150.00" from="C8B8" to="G0G1" departLane="best" departSpeed="max"/>
    <trip id="veh247" depart="6175.00" from="C4C5" to="F5F6" departLane="best" departSpeed="max"/>
    <trip id="veh248" depart="6200.00" from="B8C8" to="H7H6" departLane="best" departSpeed="max"/>
    <trip id="veh249" depart="6225.00" from="I4J4" to="D3E3" departLane="best" departSpeed="max"/>
    <trip id="veh250" depart="6250.00" from="C3D3" to="J5I5" departLane="best" departSpeed="max"/>
    <trip id="veh251" depart="6275.00" from="G9G8" to="I2I3" departLane="best" departSpeed="max"/>
    <trip id="veh252" depart="6300.00" from="A3B3" to="I7I8" departLane="best" departSpeed="max"/>
    <trip id="veh253" depart="6325.00" from="G1H1" to="D2D3" departLane="best" departSpeed="max"/>
    <trip id="veh254" depart="6350.00" from="E3E4" to="H4I4" departLane="best" departSpeed="max"/>
    <trip id="veh255" depart="6375.00" from="H6I6" to="C0D0" departLane="best" departSpeed="max"/>
    <trip id="veh256" depart="6400.00" from="G2F2" to="B8A8" departLane="best" departSpeed="max"/>
    <trip id="veh257" depart="6425.00" from="J6J5" to="E4E5" departLane="best" departSpeed="max"/>
    <trip id="veh258" depart="6450.00" from="I8J8" to="H1I1" departLane="best" departSpeed="max"/>
    <trip id="veh259" depart="6475.00" from="G0F0" to="C7C6" departLane="best" departSpeed="max"/>
    <trip id="veh260" depart="6500.00" from="F2F3" to="B5B6" departLane="best" departSpeed="max"/>
    <trip id="veh261" depart="6525.00" from="B5B6" to="H0H1" departLane="best" departSpeed="max"/>
    <trip id="veh262" depart="6550.00" from="D6D7" to="H3I3" departLane="best" departSpeed="max"/>
    <trip id="veh263" depart="6575.00" from="C5C4" to="H0I0" departLane="best" departSpeed="max"/>
    <trip id="veh264" depart="6600.00" from="H0I0" to="D1D2" departLane="best" departSpeed="max"/>
    <trip id="veh265" depart="6625.00" from="B2C2" to="E0D0" departLane="best" departSpeed="max"/>
    <trip id="veh266" depart="6650.00" from="E9D9" to="B2A2" departLane="best" departSpeed="max"/>
    <trip id="veh267" depart="6675.00" from="C0C1" to="A6B6" departLane="best" departSpeed="max"/>
    <trip id="veh268" depart="6700.00" from="F9E9" to="I6I7" departLane="best" departSpeed="max"/>
    <trip id="veh269" depart="6725.00" from="C3B3" to="A4A5" departLane="best" departSpeed="max"/>
    <trip id="veh270" depart="6750.00" from="J5J4" to="G0H0" departLane="best" departSpeed="max"/>
    <trip id="veh271" depart="6775.00" from="D5C5" to="I2H2" departLane="best" departSpeed="max"/>
    <trip id="veh272" depart="6800.00" from="B3C3" to="G8F8" departLane="best" departSpeed="max"/>
    <trip id="veh273" depart="6825.00" from="B1C1" to="E0E1" departLane="best" departSpeed="max"/>
    <trip id="veh274" depart="6850.00" from="B8B7" to="C4C5" departLane="best" departSpeed="max"/>
    <trip id="veh275" depart="6875.00" from="I0I1" to="E6E5" departLane="best" departSpeed="max"/>
    <trip id="veh276" depart="6900.00" from="F7F6" to="C2D2" departLane="best" departSpeed="max"/>
    <trip id="veh277" depart="6925.00" from="H0H1" to="D3E3" departLane="best" departSpeed="max"/>
    <trip id="veh278" depart="6950.00" from="F8F9" to="I8I9" departLane="best" departSpeed="max"/>
    <trip id="veh279" depart="6975.00" from="J8J9" to="A5B5" departLane="best" departSpeed="max"/>
    <trip id="veh280" depart="7000.00" from="H8G8" to="I3J3" departLane="best" departSpeed="max"/>
    <trip id="veh281" depart="7025.00" from="D3C3" to="D8D9" departLane="best" departSpeed="max"/>
    <trip id="veh282" depart="7050.00" from="F7F6" to="I9I8" departLane="best" departSpeed="max"/>
    <trip id="veh283" depart="7075.00" from="E0E1" to="I5J5" departLane="best" departSpeed="max"/>
    <trip id="veh284" depart="7100.00" from="H4H5" to="B6C6" departLane="best" departSpeed="max"/>
    <trip id="veh285" depart="7125.00" from="I8J8" to="A2A1" departLane="best" departSpeed="max"/>
    <trip id="veh286" depart="7150.00" from="B6B5" to="G5G6" departLane="best" departSpeed="max"/>
    <trip id="veh287" depart="7175.00" from="A7A6" to="D8D7" departLane="best" departSpeed="max"/>
    <trip id="veh288" depart="7200.00" from="B4C4" to="E6E5" departLane="best" departSpeed="max"/>
    <trip id="veh289" depart="7225.00" from="I2I1" to="I8I7" departLane="best" departSpeed="max"/>
    <trip id="veh290" depart="7250.00" from="A4A5" to="A7A8" departLane="best" departSpeed="max"/>
    <trip id="veh291" depart="7275.00" from="I2I1" to="A5A6" departLane="best" departSpeed="max"/>
    <trip id="veh292" depart="7300.00" from="C8C7" to="B3C3" departLane="best" departSpeed="max"/>
    <trip id="veh293" depart="7325.00" from="B1B0" to="A3A4" departLane="best" departSpeed="max"/>
    <trip id="veh294" depart="7350.00" from="G7G8" to="I2J2" departLane="best" departSpeed="max"/>
    <trip id="veh295" depart="7375.00" from="G5G4" to="D9D8" departLane="best" departSpeed="max"/>
    <trip id="veh296" depart="7400.00" from="G2G3" to="J6I6" departLane="best" departSpeed="max"/>