<?xml version="1.0" encoding="UTF-8"?>

<!-- generated on 2026-03-07 03:24:44.228249 by Eclipse SUMO randomTrips.py v1.26.0
<configuration>
    <net-file value="manhattan.net.xml"/>
    <output-trip-file value="manhattan_50k.trips.xml"/>
    <route-file value="manhattan_50k.rou.xml"/>
    <prefix value="veh"/>
    <trip-attributes value="departLane=&quot;best&quot; departSpeed=&quot;max&quot;"/>
    <seed value="1"/>
    <min-distance value="800.0"/>
    <end value="50000.0"/>
    <period value="10.0"/>
</configuration>
-->

<!-- generated on 2026-03-07T03:24:43.969307+00:00 by Eclipse SUMO duarouter 1.26.0
<duarouterConfiguration xmlns:xsi="http://www.w3.org/2001/XMLSchema-instance" xsi:noNamespaceSchemaLocation="http://sumo.dlr.de/xsd/duarouterConfiguration.xsd">

    <input>
        <net-file value="manhattan.net.xml"/>
        <route-files value="manhattan_50k.trips.xml"/>
    </input>

    <output>
        <output-file value="manhattan_50k.rou.xml"/>
        <alternatives-output value="NUL"/>
    </output>

    <time>
        <begin value="0"/>
        <end value="50000.0"/>
    </time>

    <report>
        <no-warnings value="true"/>
        <ignore-errors value="true"/>
        <no-step-log value="true"/>
    </report>

</duarouterConfiguration>
-->

<routes xmlns:xsi="http://www.w3.org/2001/XMLSchema-instance" xsi:noNamespaceSchemaLocation="http://sumo.dlr.de/xsd/routes_file.xsd">
    <vehicle id="veh0" depart="0.00" departLane="best" departSpeed="max">
        <route edges="B5B4 B4C4 C4D4 D4E4 E4F4 F4G4 G4H4 H4I4 I4I3 I3H3"/>
    </vehicle>
    <vehicle id="veh1" depart="10.00" departLane="best" departSpeed="max">
        <route edges="H4I4 I4H4 H4G4 G4F4 F4E4 E4D4 D4C4 C4C5 C5C6 C6C7"/>
    </vehicle>
    <vehicle id="veh2" depart="20.00" departLane="best" departSpeed="max">
        <route edges="E9E8 E8E7 E7E6 E6E5 E5D5"/>
    </vehicle>
    <vehicle id="veh3" depart="30.00" departLane="best" departSpeed="max">
        <route edges="I1J1 J1I1 I1H1 H1G1 G1F1 F1E1 E1E2 E2E3 E3E4"/>
    </vehicle>
    <vehicle id="veh4" depart="40.00" departLane="best" departSpeed="max">
        <route edges="H4I4 I4I3 I3I2 I2I1 I1I0 I0H0 H0G0 G0F0 F0E0 E0D0 D0C0 C0B0 B0A0 A0A1"/>
    </vehicle>
    <vehicle id="veh5" depart="50.00" departLane="best" departSpeed="max">
        <route edges="C4C3 C3D3 D3E3 E3F3 F3G3 G3H3 H3I3 I3J3 J3I3"/>
    </vehicle>
    <vehicle id="veh6" depart="60.00" departLane="best" departSpeed="max">
        <route edges="I7J7 J7J6 J6J5 J5J4 J4I4 I4H4 H4G4 G4F4 F4E4 E4D4 D4C4 C4B4 B4A4 A4A3"/>
    </vehicle>
    <vehicle id="veh7" depart="70.00" departLane="best" departSpeed="max">
        <route edges="A3A4 A4B4 B4C4 C4D4 D4E4 E4F4 F4F3 F3G3"/>
    </vehicle>
    <vehicle id="veh8" depart="80.00" departLane="best" departSpeed="max">
        <route edges="J2J1 J1I1 I1H1 H1G1 G1F1 F1E1 E1D1 D1D2 D2D3 D3D4 D4D5 D5D6 D6D7 D7D8 D8D9"/>
    </vehicle>
    <vehicle id="veh9" depart="90.00" departLane="best" departSpeed="max">
        <route edges="E4D4 D4D5 D5D6 D6D7 D7D8 D8D9 D9E9 E9E8"/>
    </vehicle>
    <vehicle id="veh10" depart="100.00" departLane="best" departSpeed="max">
        <route edges="G3G4 G4F4 F4F3 F3F2 F2F1 F1F0 F0E0 E0D0 D0C0 C0B0"/>
    </vehicle>
    <vehicle id="veh11" depart="110.00" departLane="best" departSpeed="max">
        <route edges="J8J9 J9I9 I9I8 I8I7 I7I6 I6I5 I5I4 I4H4"/>
    </vehicle>
    <vehicle id="veh12" depart="120.00" departLane="best" departSpeed="max">
        <route edges="J2I2 I2H2 H2G2 G2F2 F2E2 E2E3"/>
    </vehicle>
    <vehicle id="veh13" depart="130.00" departLane="best" departSpeed="max">
        <route edges="I1I0 I0H0 H0G0 G0G1 G1G2 G2G3 G3G4 G4G5 G5G6 G6F6"/>
    </vehicle>
    <vehicle id="veh14" depart="140.00" departLane="best" departSpeed="max">
        <route edges="D1D2 D2D3 D3D4 D4D5 D5D6 D6D7 D7D8 D8E8 E8F8 F8E8"/>
    </vehicle>
    <vehicle id="veh15" depart="150.00" departLane="best" departSpeed="max">
        <route edges="I6H6 H6H5 H5H4 H4H3 H3H2 H2I2 I2J2"/>
    </vehicle>
    <vehicle id="veh16" depart="160.00" departLane="best" departSpeed="max">
        <route edges="F0F1 F1F2 F2F3 F3F4 F4F5 F5F6 F6F7 F7F8 F8F7"/>
    </vehicle>
    <vehicle id="veh17" depart="170.00" departLane="best" departSpeed="max">
        <route edges="H8G8 G8G7 G7G6 G6G5 G5G4 G4G3 G3G2 G2F2 F2E2 E2D2"/>
    </vehicle>
    <vehicle id="veh18" depart="180.00" departLane="best" departSpeed="max">
        <route edges="B8C8 C8D8 D8D7 D7D6 D6D5 D5D4 D4E4 E4F4 F4F5"/>
    </vehicle>
    <vehicle id="veh19" depart="190.00" departLane="best" departSpeed="max">
        <route edges="G9F9 F9F8 F8F7 F7G7 G7G6 G6G5"/>
    </vehicle>
    <vehicle id="veh20" depart="200.00" departLane="best" departSpeed="max">
        <route edges="D7E7 E7E6 E6E5 E5E4 E4E3"/>
    </vehicle>
    <vehicle id="veh21" depart="210.00" departLane="best" departSpeed="max">
        <route edges="F1E1 E1E2 E2E3 E3E4 E4E5 E5E6 E6F6 F6G6 G6H6 H6H5"/>
    </vehicle>
    <vehicle id="veh22" depart="220.00" departLane="best" departSpeed="max">
        <route edges="F2E2 E2D2 D2D3 D3D4 D4D5 D5D6 D6D7 D7D8 D8D9 D9E9"/>
    </vehicle>
    <vehicle id="veh23" depart="230.00" departLane="best" departSpeed="max">
        <route edges="E8F8 F8F7 F7F6 F6F5 F5F4 F4F3 F3E3 E3D3 D3C3 C3B3 B3A3 A3B3"/>
    </vehicle>
    <vehicle id="veh24" depart="240.00" departLane="best" departSpeed="max">
        <route edges="A5A6 A6A7 A7A8 A8A9 A9B9 B9C9 C9D9 D9E9 E9F9 F9G9 G9F9"/>
    </vehicle>
    <vehicle id="veh25" depart="250.00" departLane="best" departSpeed="max">
        <route edges="J7J6 J6I6 I6H6 H6G6 G6F6 F6F7 F7F8 F8F9"/>
    </vehicle>
    <vehicle id="veh26" depart="260.00" departLane="best" departSpeed="max">
        <route edges="F0E0 E0E1 E1E2 E2E3 E3E4 E4E5 E5E6 E6E7 E7F7 F7G7 G7H7 H7I7 I7J7 J7J6"/>
    </vehicle>
    <vehicle id="veh27" depart="270.00" departLane="best" departSpeed="max">
        <route edges="I4H4 H4G4 G4F4 F4E4 E4D4 D4C4 C4C5"/>
    </vehicle>
    <vehicle id="veh28" depart="280.00" departLane="best" departSpeed="max">
        <route edges="F1F0 F0G0 G0H0 H0I0 I0J0 J0J1 J1J2 J2J3 J3J4"/>
    </vehicle>
    <vehicle id="veh29" depart="290.00" departLane="best" departSpeed="max">
        <route edges="J4J3 J3J2 J2I2 I2H2 H2G2 G2F2 F2E2 E2D2 D2C2 C2B2 B2A2 A2A1 A1A0"/>
    </vehicle>
    <vehicle id="veh30" depart="300.00" departLane="best" departSpeed="max">
        <route edges="H6I6 I6I5 I5I4 I4I3 I3I2 I2I1 I1I0 I0I1"/>
    </vehicle>
    <vehicle id="veh31" depart="310.00" departLane="best" departSpeed="max">
        <route edges="I6I7 I7H7 H7H6 H6H5 H5H4 H4H3 H3H2 H2I2"/>
    </vehicle>
    <vehicle id="veh32" depart="320.00" departLane="best" departSpeed="max">
        <route edges="H9G9 G9F9 F9F8 F8F7 F7F6 F6F5 F5F4 F4F3 F3F2 F2F1 F1G1"/>
    </vehicle>
    <vehicle id="veh33" depart="330.00" departLane="best" departSpeed="max">
        <route edges="A7A6 A6B6 B6C6 C6D6 D6E6 E6F6 F6G6 G6H6 H6I6 I6I5 I5H5"/>
    </vehicle>
    <vehicle id="veh34" depart="340.00" departLane="best" departSpeed="max">
        <route edges="F6F7 F7E7 E7E6 E6E5 E5E4 E4E3 E3E2 E2E1 E1D1 D1C1 C1C2"/>
    </vehicle>
    <vehicle id="veh35" depart="350.00" departLane="best" departSpeed="max">
        <route edges="F0F1 F1F2 F2F3 F3F4 F4F5 F5F6 F6F7 F7F8 F8E8 E8E7"/>
    </vehicle>
    <vehicle id="veh36" depart="360.00" departLane="best" departSpeed="max">
        <route edges="G0H0 H0G0 G0F0 F0E0 E0E1 E1E2 E2E3 E3E4 E4E5 E5F5"/>
    </vehicle>
    <vehicle id="veh37" depart="370.00" departLane="best" departSpeed="max">
        <route edges="B9A9 A9A8 A8A7 A7B7 B7C7 C7D7 D7E7 E7F7 F7G7"/>
    </vehicle>
    <vehicle id="veh38" depart="380.00" departLane="best" departSpeed="max">
        <route edges="I4H4 H4H5 H5H6 H6H7 H7H8 H8G8"/>
    </vehicle>
    <vehicle id="veh39" depart="390.00" departLane="best" departSpeed="max">
        <route edges="C6C7 C7D7 D7E7 E7F7 F7G7 G7H7 H7H6 H6H5 H5H4 H4H3 H3H2 H2I2 I2I3"/>
    </vehicle>
    <vehicle id="veh40" depart="400.00" departLane="best" departSpeed="max">
        <route edges="G6G5 G5G4 G4G3 G3G2 G2G1 G1G0 G0F0 F0E0 E0D0 D0C0 C0B0 B0B1"/>
    </vehicle>
    <vehicle id="veh41" depart="410.00" departLane="best" departSpeed="max">
        <route edges="H4H3 H3G3 G3F3 F3E3 E3D3 D3C3 C3C4 C4C5 C5C6 C6B6"/>
    </vehicle>
    <vehicle id="veh42" depart="420.00" departLane="best" departSpeed="max">
        <route edges="B3A3 A3A2 A2A1 A1B1 B1C1 C1D1 D1E1 E1F1 F1G1 G1H1"/>
    </vehicle>
    <vehicle id="veh43" depart="430.00" departLane="best" departSpeed="max">
        <route edges="B7B8 B8C8 C8D8 D8E8 E8E7 E7E6 E6E5 E5E4 E4E3 E3E2 E2F2 F2F3"/>
    </vehicle>
    <vehicle id="veh44" depart="440.00" departLane="best" departSpeed="max">
        <route edges="H0G0 G0F0 F0E0 E0E1 E1E2 E2E3 E3E4 E4E5 E5E6"/>
    </vehicle>
    <vehicle id="veh45" depart="450.00" departLane="best" departSpeed="max">
        <route edges="A3A2 A2B2 B2C2 C2D2 D2D3 D3D4 D4D5 D5D6 D6D7 D7D8 D8D9 D9C9"/>
    </vehicle>
    <vehicle id="veh46" depart="460.00" departLane="best" departSpeed="max">
        <route edges="B3A3 A3A4 A4A5 A5A6 A6A7 A7B7 B7C7 C7D7 D7E7 E7F7 F7G7 G7H7 H7I7 I7I8"/>
    </vehicle>
    <vehicle id="veh47" depart="470.00" departLane="best" departSpeed="max">
        <route edges="B6B5 B5B4 B4B3 B3B2 B2B1 B1B0 B0C0 C0D0 D0E0 E0F0 F0G0 G0H0 H0I0"/>
    </vehicle>
    <vehicle id="veh48" depart="480.00" departLane="best" departSpeed="max">
        <route edges="B7B8 B8C8 C8D8 D8E8 E8F8 F8G8 G8G9 G9F9"/>
    </vehicle>
    <vehicle id="veh49" depart="490.00" departLane="best" departSpeed="max">
        <route edges="C3C4 C4C5 C5D5 D5E5 E5F5 F5G5 G5H5 H5I5 I5J5 J5J6 J6J7"/>
    </vehicle>
    <vehicle id="veh50" depart="500.00" departLane="best" departSpeed="max">
        <route edges="H8G8 G8G7 G7G6 G6G5 G5G4 G4G3 G3G2 G2G1 G1F1 F1F2"/>
    </vehicle>
    <vehicle id="veh51" depart="510.00" departLane="best" departSpeed="max">
        <route edges="E0D0 D0D1 D1D2 D2D3 D3D4 D4D5 D5D6 D6D7 D7E7 E7F7 F7E7"/>
    </vehicle>
    <vehicle id="veh52" depart="520.00" departLane="best" departSpeed="max">
        <route edges="A7A8 A8B8 B8C8 C8D8 D8D7 D7D6 D6D5 D5D4 D4D3 D3D2 D2D1 D1C1"/>
    </vehicle>
    <vehicle id="veh53" depart="530.00" departLane="best" departSpeed="max">
        <route edges="D1E1 E1F1 F1F2 F2F3 F3F4 F4G4 G4H4 H4I4 I4H4"/>
    </vehicle>
    <vehicle id="veh54" depart="540.00" departLane="best" departSpeed="max">
        <route edges="D2C2 C2D2 D2E2 E2F2 F2G2 G2H2 H2I2 I2J2 J2J1"/>
    </vehicle>
    <vehicle id="veh55" depart="550.00" departLane="best" departSpeed="max">
        <route edges="H3G3 G3G2 G2F2 F2E2 E2D2"/>
    </vehicle>
    <vehicle id="veh56" depart="560.00" departLane="best" departSpeed="max">
        <route edges="C6C5 C5C4 C4C3 C3C2 C2C1 C1B1 B1A1 A1A2"/>
    </vehicle>
    <vehicle id="veh57" depart="570.00" departLane="best" departSpeed="max">
        <route edges="I5J5 J5J4 J4I4 I4H4 H4G4 G4F4 F4E4 E4D4 D4C4 C4B4 B4A4 A4B4"/>
    </vehicle>
    <vehicle id="veh58" depart="580.00" departLane="best" departSpeed="max">
        <route edges="I0H0 H0H1 H1H2 H2H3 H3H4 H4H5 H5I5 I5J5 J5I5"/>
    </vehicle>
    <vehicle id="veh59" depart="590.00" departLane="best" departSpeed="max">
        <route edges="F6F7 F7E7 E7D7 D7C7 C7B7 B7B8 B8B9"/>
    </vehicle>
    <vehicle id="veh60" depart="600.00" departLane="best" departSpeed="max">
        <route edges="G9F9 F9F8 F8F7 F7F6 F6F5 F5F4 F4F3 F3F2 F2F1 F1E1"/>
    </vehicle>
    <vehicle id="veh61" depart="610.00" departLane="best" departSpeed="max">
        <route edges="D8D7 D7D6 D6D5 D5D4"/>
    </vehicle>
    <vehicle id="veh62" depart="620.00" departLane="best" departSpeed="max">
        <route edges="C2C1 C1D1 D1D2 D2D3 D3D4 D4D5 D5D6 D6E6 E6F6 F6G6 G6G5"/>
    </vehicle>
    <vehicle id="veh63" depart="630.00" departLane="best" departSpeed="max">
        <route edges="B2B3 B3C3 C3D3 D3E3 E3F3 F3G3 G3G4 G4G5 G5G6"/>
    </vehicle>
    <vehicle id="veh64" depart="640.00" departLane="best" departSpeed="max">
        <route edges="D0E0 E0E1 E1E2 E2E3 E3E4 E4E5 E5E6 E6E7 E7E8 E8E9 E9F9"/>
    </vehicle>
    <vehicle id="veh65" depart="650.00" departLane="best" departSpeed="max">
        <route edges="D3D4 D4D5 D5E5 E5F5 F5G5 G5H5 H5I5 I5H5"/>
    </vehicle>
    <vehicle id="veh66" depart="660.00" departLane="best" departSpeed="max">
        <route edges="I7I8 I8H8 H8G8 G8F8 F8E8 E8E7 E7E6 E6E5 E5E4 E4E3 E3E2 E2D2 D2C2 C2B2 B2A2 A2A3"/>
    </vehicle>
    <vehicle id="veh67" depart="670.00" departLane="best" departSpeed="max">
        <route edges="G6G5 G5G4 G4H4 H4I4 I4I3 I3I2 I2H2"/>
    </vehicle>
    <vehicle id="veh68" depart="680.00" departLane="best" departSpeed="max">
        <route edges="J1J0 J0I0 I0H0 H0G0 G0F0 F0E0 E0D0 D0D1 D1D2 D2D3 D3D4 D4D5 D5C5"/>
    </vehicle>
    <vehicle id="veh69" depart="690.00" departLane="best" departSpeed="max">
        <route edges="E8E7 E7F7 F7G7 G7H7 H7I7 I7J7 J7J8"/>
    </vehicle>
    <vehicle id="veh70" depart="700.00" departLane="best" departSpeed="max">
        <route edges="C4D4 D4E4 E4E3 E3E2 E2E1 E1F1 F1G1 G1H1 H1H2"/>
    </vehicle>
    <vehicle id="veh71" depart="710.00" departLane="best" departSpeed="max">
        <route edges="B0C0 C0C1 C1C2 C2C3 C3C4 C4C5 C5C6 C6C7 C7C8 C8B8 B8B9"/>
    </vehicle>
    <vehicle id="veh72" depart="720.00" departLane="best" departSpeed="max">
        <route edges="I8I9 I9H9 H9G9 G9F9 F9E9 E9D9 D9C9 C9C8 C8C7 C7C6 C6C5 C5C4 C4C3 C3C2 C2D2"/>
    </vehicle>
    <vehicle id="veh73" depart="730.00" departLane="best" departSpeed="max">
        <route edges="H4H5 H5H6 H6H7 H7H8 H8H9 H9G9 G9F9 F9F8"/>
    </vehicle>
    <vehicle id="veh74" depart="740.00" departLane="best" departSpeed="max">
        <route edges="I2I1 I1H1 H1G1 G1F1 F1E1 E1E2 E2E3 E3E4 E4E5 E5E6 E6E7 E7D7 D7D6"/>
    </vehicle>
    <vehicle id="veh75" depart="750.00" departLane="best" departSpeed="max">
        <route edges="D4E4 E4E3 E3E2 E2E1 E1E0 E0D0 D0C0"/>
    </vehicle>
    <vehicle id="veh76" depart="760.00" departLane="best" departSpeed="max">
        <route edges="I4J4 J4I4 I4H4 H4G4 G4F4 F4F5 F5F6 F6F7 F7F8 F8F9 F9G9"/>
    </vehicle>
    <vehicle id="veh77" depart="770.00" departLane="best" departSpeed="max">
        <route edges="B5B4 B4C4 C4D4 D4E4 E4F4 F4G4"/>
    </vehicle>
    <vehicle id="veh78" depart="780.00" departLane="best" departSpeed="max">
        <route edges="A9A8 A8A7 A7A6 A6A5 A5A4 A4B4 B4C4 C4D4 D4E4 E4F4 F4G4 G4H4 H4I4 I4I5"/>
    </vehicle>
    <vehicle id="veh79" depart="790.00" departLane="best" departSpeed="max">
        <route edges="H7G7 G7H7 H7I7 I7I6 I6I5 I5I4 I4I3 I3I2 I2I1 I1I0"/>
    </vehicle>
    <vehicle id="veh80" depart="800.00" departLane="best" departSpeed="max">
        <route edges="H6H7 H7H8 H8G8 G8F8 F8E8 E8D8 D8D7"/>
    </vehicle>
    <vehicle id="veh81" depart="810.00" departLane="best" departSpeed="max">
        <route edges="B0B1 B1B2 B2B3 B3B4 B4B5 B5B6 B6B7 B7C7 C7D7"/>
    </vehicle>
    <vehicle id="veh82" depart="820.00" departLane="best" departSpeed="max">
        <route edges="I6J6 J6I6 I6H6 H6G6 G6F6 F6E6"/>
    </vehicle>
    <vehicle id="veh83" depart="830.00" departLane="best" departSpeed="max">
        <route edges="J0J1 J1J2 J2J3 J3J4 J4I4 I4H4 H4G4 G4F4 F4E4 E4E5 E5F5"/>
    </vehicle>
    <vehicle id="veh84" depart="840.00" departLane="best" departSpeed="max">
        <route edges="C8C9 C9D9 D9E9 E9F9 F9G9 G9H9 H9H8 H8H7 H7G7"/>
    </vehicle>
    <vehicle id="veh85" depart="850.00" departLane="best" departSpeed="max">
        <route edges="I1H1 H1G1 G1F1 F1E1 E1D1 D1C1 C1B1 B1A1 A1B1"/>
    </vehicle>
    <vehicle id="veh86" depart="860.00" departLane="best" departSpeed="max">
        <route edges="G6F6 F6F5 F5F4 F4F3 F3F2 F2F1 F1E1 E1D1 D1C1 C1B1 B1B2"/>
    </vehicle>
    <vehicle id="veh87" depart="870.00" departLane="best" departSpeed="max">
        <route edges="B3B4 B4B5 B5B6 B6C6 C6D6 D6E6 E6F6 F6G6 G6H6 H6I6 I6I5"/>
    </vehicle>
    <vehicle id="veh88" depart="880.00" departLane="best" departSpeed="max">
        <route edges="J8I8 I8I7 I7I6 I6I5 I5I4 I4I3 I3I2 I2H2 H2G2 G2F2 F2E2 E2E3"/>
    </vehicle>
    <vehicle id="veh89" depart="890.00" departLane="best" departSpeed="max">
        <route edges="B3B4 B4B5 B5B6 B6B7 B7B8 B8B7"/>
    </vehicle>
    <vehicle id="veh90" depart="900.00" departLane="best" departSpeed="max">
        <route edges="C5C4 C4D4 D4E4 E4F4 F4G4 G4H4 H4H3 H3G3"/>
    </vehicle>
    <vehicle id="veh91" depart="910.00" departLane="best" departSpeed="max">
        <route edges="B2B3 B3B4 B4B5 B5B6 B6B7 B7B8 B8C8 C8D8 D8E8 E8F8 F8G8 G8H8 H8I8 I8I9"/>
    </vehicle>
    <vehicle id="veh92" depart="920.00" departLane="best" departSpeed="max">
        <route edges="D8D7 D7E7 E7F7 F7G7 G7H7 H7I7 I7J7 J7J6 J6I6"/>
    </vehicle>
    <vehicle id="veh93" depart="930.00" departLane="best" departSpeed="max">
        <route edges="I8I9 I9I8 I8I7 I7I6 I6I5 I5I4 I4I3 I3I2 I2I1 I1I0 I0H0 H0G0 G0F0 F0E0 E0D0 D0D1"/>
    </vehicle>
    <vehicle id="veh94" depart="940.00" departLane="best" departSpeed="max">
        <route edges="B2B1 B1C1 C1D1 D1E1 E1F1 F1F2 F2F3 F3F4 F4G4 G4G3"/>
    </vehicle>
    <vehicle id="veh95" depart="950.00" departLane="best" departSpeed="max">
        <route edges="J7J6 J6J5 J5J4 J4J3 J3J2 J2J1 J1J0 J0I0 I0H0 H0G0 G0F0 F0E0 E0D0 D0E0"/>
    </vehicle>
    <vehicle id="veh96" depart="960.00" departLane="best" departSpeed="max">
        <route edges="D2D1 D1C1 C1B1 B1A1 A1A2 A2A3 A3A4 A4A5 A5A6 A6A7 A7B7"/>
    </vehicle>
    <vehicle id="veh97" depart="970.00" departLane="best" departSpeed="max">
        <route edges="J6I6 I6H6 H6G6 G6F6 F6E6 E6D6 D6C6 C6B6 B6B5 B5B4 B4B3 B3B2"/>
    </vehicle>
    <vehicle id="veh98" depart="980.00" departLane="best" departSpeed="max">
        <route edges="C3B3 B3C3 C3D3 D3E3 E3F3 F3G3 G3G2 G2G1 G1G0"/>
    </vehicle>
    <vehicle id="veh99" depart="990.00" departLane="best" departSpeed="max">
        <route edges="J7I7 I7H7 H7H6 H6H5 H5H4 H4G4 G4F4 F4E4"/>
    </vehicle>
    <vehicle id="veh100" depart="1000.00" departLane="best" departSpeed="max">
        <route edges="C7B7 B7B6 B6B5 B5B4 B4B3 B3C3 C3D3 D3E3 E3F3 F3G3"/>
    </vehicle>
    <vehicle id="veh101" depart="1010.00" departLane="best" departSpeed="max">
        <route edges="D1E1 E1D1 D1C1 C1C2 C2C3 C3C4 C4C5 C5D5"/>
    </vehicle>
    <vehicle id="veh102" depart="1020.00" departLane="best" departSpeed="max">
        <route edges="B0B1 B1B2 B2B3 B3B4 B4B5 B5B6 B6B7 B7B8 B8C8 C8C9 C9B9"/>
    </vehicle>
    <vehicle id="veh103" depart="1030.00" departLane="best" departSpeed="max">
        <route edges="J7J8 J8I8 I8H8 H8G8 G8F8 F8F7 F7F6 F6F5 F5E5 E5D5"/>
    </vehicle>
    <vehicle id="veh104" depart="1040.00" departLane="best" departSpeed="max">
        <route edges="J2J1 J1I1 I1I2 I2I3 I3I4 I4I5 I5I6 I6I7 I7I8 I8I9 I9H9 H9G9 G9F9 F9E9 E9D9 D9D8"/>
    </vehicle>
    <vehicle id="veh105" depart="1050.00" departLane="best" departSpeed="max">
        <route edges="D2E2 E2F2 F2G2 G2H2 H2I2 I2J2"/>
    </vehicle>
    <vehicle id="veh106" depart="1060.00" departLane="best" departSpeed="max">
        <route edges="I7H7 H7H6 H6H5 H5H4 H4H3 H3H2 H2H1 H1G1 G1F1 F1E1 E1D1 D1D2"/>
    </vehicle>
    <vehicle id="veh107" depart="1070.00" departLane="best" departSpeed="max">
        <route edges="F4G4 G4F4 F4E4 E4D4 D4C4 C4B4 B4A4 A4A5 A5A6 A6A7 A7A8 A8B8"/>
    </vehicle>
    <vehicle id="veh108" depart="1080.00" departLane="best" departSpeed="max">
        <route edges="A9B9 B9C9 C9D9 D9E9 E9F9 F9G9 G9G8 G8G7 G7G6 G6G5 G5G4 G4G3 G3G2 G2H2"/>
    </vehicle>
    <vehicle id="veh109" depart="1090.00" departLane="best" departSpeed="max">
        <route edges="D0C0 C0C1 C1C2 C2C3 C3C4 C4C5 C5C6 C6C7 C7D7 D7E7 E7F7 F7G7 G7H7 H7H8"/>
    </vehicle>
    <vehicle id="veh110" depart="1100.00" departLane="best" departSpeed="max">
        <route edges="E9D9 D9E9 E9F9 F9G9 G9H9 H9I9 I9I8 I8I7 I7I6 I6I5 I5I4 I4I3"/>
    </vehicle>
    <vehicle id="veh111" depart="1110.00" departLane="best" departSpeed="max">
        <route edges="B7A7 A7A6 A6A5 A5A4 A4A3 A3A2 A2A1 A1A0 A0B0 B0C0 C0D0 D0E0 E0F0 F0E0"/>
    </vehicle>
    <vehicle id="veh112" depart="1120.00" departLane="best" departSpeed="max">
        <route edges="H7I7 I7H7 H7G7 G7F7 F7E7 E7D7 D7C7 C7B7 B7A7 A7A8 A8A9 A9B9"/>
    </vehicle>
    <vehicle id="veh113" depart="1130.00" departLane="best" departSpeed="max">
        <route edges="J3J2 J2I2 I2H2 H2G2 G2F2 F2E2 E2D2 D2C2 C2B2 B2B3 B3B4 B4B5 B5B6 B6B7 B7B8 B8C8"/>
    </vehicle>
    <vehicle id="veh114" depart="1140.00" departLane="best" departSpeed="max">
        <route edges="I0I1 I1I2 I2I3 I3H3 H3G3 G3F3 F3E3 E3D3 D3C3"/>
    </vehicle>
    <vehicle id="veh115" depart="1150.00" departLane="best" departSpeed="max">
        <route edges="B2C2 C2D2 D2E2 E2E1 E1F1 F1F2"/>
    </vehicle>
    <vehicle id="veh116" depart="1160.00" departLane="best" departSpeed="max">
        <route edges="I9I8 I8I7 I7I6 I6I5 I5I4 I4I3 I3I2 I2I1 I1I0 I0H0 H0G0 G0F0 F0E0 E0D0 D0D1"/>
    </vehicle>
    <vehicle id="veh117" depart="1170.00" departLane="best" departSpeed="max">
        <route edges="I7H7 H7G7 G7F7 F7E7 E7D7 D7D6 D6C6 C6B6 B6A6"/>
    </vehicle>
    <vehicle id="veh118" depart="1180.00" departLane="best" departSpeed="max">
        <route edges="I8I9 I9H9 H9G9 G9F9 F9E9 E9D9 D9C9 C9B9 B9A9 A9A8 A8A7 A7A6 A6A5 A5A4 A4A3"/>
    </vehicle>
    <vehicle id="veh119" depart="1190.00" departLane="best" departSpeed="max">
        <route edges="D2D3 D3D4 D4D5 D5D6 D6D7 D7D8 D8E8 E8F8 F8G8 G8H8 H8I8 I8H8"/>
    </vehicle>
    <vehicle id="veh120" depart="1200.00" departLane="best" departSpeed="max">
        <route edges="G7H7 H7H8 H8H9 H9G9 G9F9 F9E9 E9D9 D9C9 C9B9 B9B8"/>
    </vehicle>
    <vehicle id="veh121" depart="1210.00" departLane="best" departSpeed="max">
        <route edges="E3E4 E4E5 E5E6 E6E7 E7D7 D7C7 C7B7 B7B6"/>
    </vehicle>
    <vehicle id="veh122" depart="1220.00" departLane="best" departSpeed="max">
        <route edges="H0H1 H1H2 H2G2 G2G3 G3G4 G4G5 G5H5"/>
    </vehicle>
    <vehicle id="veh123" depart="1230.00" departLane="best" departSpeed="max">
        <route edges="I3I2 I2H2 H2G2 G2F2 F2E2 E2E3 E3E4 E4E5 E5E6"/>
    </vehicle>
    <vehicle id="veh124" depart="1240.00" departLane="best" departSpeed="max">
        <route edges="E0D0 D0D1 D1D2 D2D3 D3D4 D4D5"/>
    </vehicle>
    <vehicle id="veh125" depart="1250.00" departLane="best" departSpeed="max">
        <route edges="C6D6 D6D5 D5C5 C5B5 B5A5 A5A4 A4A3 A3A2"/>
    </vehicle>
    <vehicle id="veh126" depart="1260.00" departLane="best" departSpeed="max">
        <route edges="F6F7 F7E7 E7D7 D7C7 C7B7 B7A7 A7B7"/>
    </vehicle>
    <vehicle id="veh127" depart="1270.00" departLane="best" departSpeed="max">
        <route edges="I1I0 I0H0 H0G0 G0F0 F0E0 E0E1"/>
    </vehicle>
    <vehicle id="veh128" depart="1280.00" departLane="best" departSpeed="max">
        <route edges="C4D4 D4D3 D3C3 C3B3 B3A3 A3A2 A2A1 A1A0"/>
    </vehicle>
    <vehicle id="veh129" depart="1290.00" departLane="best" departSpeed="max">
        <route edges="G7G8 G8H8 H8H7 H7H6 H6H5 H5H4 H4H3 H3H2 H2G2"/>
    </vehicle>
    <vehicle id="veh130" depart="1300.00" departLane="best" departSpeed="max">
        <route edges="E7F7 F7F6 F6F5 F5F4 F4E4 E4D4 D4C4 C4B4"/>
    </vehicle>
    <vehicle id="veh131" depart="1310.00" departLane="best" departSpeed="max">
        <route edges="E1F1 F1F2 F2F3 F3F4 F4F5 F5F6"/>
    </vehicle>
    <vehicle id="veh132" depart="1320.00" departLane="best" departSpeed="max">
        <route edges="C8C9 C9D9 D9E9 E9F9 F9G9 G9G8 G8G7 G7G6 G6G5 G5G4 G4G3 G3H3"/>
    </vehicle>
    <vehicle id="veh133" depart="1330.00" departLane="best" departSpeed="max">
        <route edges="F1F0 F0G0 G0H0 H0I0 I0I1 I1I2 I2I3 I3I4 I4I5 I5I6"/>
    </vehicle>
    <vehicle id="veh134" depart="1340.00" departLane="best" departSpeed="max">
        <route edges="B7B8 B8C8 C8D8 D8E8 E8F8 F8G8 G8H8 H8H7 H7H6 H6H5 H5G5"/>
    </vehicle>
    <vehicle id="veh135" depart="1350.00" departLane="best" departSpeed="max">
        <route edges="I6H6 H6G6 G6F6 F6E6 E6D6 D6D5 D5D4 D4D3 D3D2 D2D1"/>
    </vehicle>
    <vehicle id="veh136" depart="1360.00" departLane="best" departSpeed="max">
        <route edges="G8F8 F8G8 G8H8 H8I8 I8I7 I7I6 I6I5 I5I4 I4I3 I3H3"/>
    </vehicle>
    <vehicle id="veh137" depart="1370.00" departLane="best" departSpeed="max">
        <route edges="D7D8 D8E8 E8F8 F8G8 G8H8"/>
    </vehicle>
    <vehicle id="veh138" depart="1380.00" departLane="best" departSpeed="max">
        <route edges="H2H3 H3H4 H4H5 H5H6 H6H7 H7G7 G7F7 F7F8 F8G8"/>
    </vehicle>
    <vehicle id="veh139" depart="1390.00" departLane="best" departSpeed="max">
        <route edges="J4J5 J5I5 I5H5 H5G5 G5F5 F5F6 F6F7"/>
    </vehicle>
    <vehicle id="veh140" depart="1400.00" departLane="best" departSpeed="max">
        <route edges="B9A9 A9A8 A8A7 A7B7 B7C7 C7C6 C6C5"/>
    </vehicle>
    <vehicle id="veh141" depart="1410.00" departLane="best" departSpeed="max">
        <route edges="C3C2 C2D2 D2E2 E2F2 F2F3 F3F4 F4F5 F5F6 F6F7"/>
    </vehicle>
    <vehicle id="veh142" depart="1420.00" departLane="best" departSpeed="max">
        <route edges="H4H3 H3G3 G3F3 F3E3 E3D3 D3C3 C3B3 B3A3 A3A4 A4A5 A5A6 A6A7"/>
    </vehicle>
    <vehicle id="veh143" depart="1430.00" departLane="best" departSpeed="max">
        <route edges="G7F7 F7F6 F6F5 F5F4 F4F3 F3F2 F2F1 F1F0 F0G0 G0H0 H0I0"/>
    </vehicle>
    <vehicle id="veh144" depart="1440.00" departLane="best" departSpeed="max">
        <route edges="B8A8 A8A7 A7A6 A6A5 A5A4 A4A3 A3A2 A2A1 A1B1 B1C1 C1D1 D1E1 E1F1 F1G1 G1H1 H1I1"/>
    </vehicle>
    <vehicle id="veh145" depart="1450.00" departLane="best" departSpeed="max">
        <route edges="A5A4 A4B4 B4C4 C4D4 D4E4 E4E5 E5E6 E6E7 E7F7 F7G7 G7H7 H7I7 I7J7 J7J6"/>
    </vehicle>
    <vehicle id="veh146" depart="1460.00" departLane="best" departSpeed="max">
        <route edges="H8I8 I8I7 I7I6 I6I5 I5I4 I4I3 I3I2 I2H2 H2G2 G2G1"/>
    </vehicle>
    <vehicle id="veh147" depart="1470.00" departLane="best" departSpeed="max">
        <route edges="C7D7 D7E7 E7F7 F7G7 G7H7 H7H8 H8I8 I8J8"/>
    </vehicle>
    <vehicle id="veh148" depart="1480.00" departLane="best" departSpeed="max">
        <route edges="J4J5 J5I5 I5H5 H5G5 G5F5 F5E5 E5D5 D5C5 C5B5 B5C5"/>
    </vehicle>
    <vehicle id="veh149" depart="1490.00" departLane="best" departSpeed="max">
        <route edges="E4F4 F4G4 G4H4 H4I4 I4J4 J4J3 J3J2 J2J1 J1J0 J0I0"/>
    </vehicle>
    <vehicle id="veh150" depart="1500.00" departLane="best" departSpeed="max">
        <route edges="J6I6 I6H6 H6G6 G6F6 F6E6 E6D6 D6D7 D7D8 D8D9"/>
    </vehicle>
    <vehicle id="veh151" depart="1510.00" departLane="best" departSpeed="max">
        <route edges="H8H7 H7H6 H6H5 H5H4 H4H3 H3G3 G3F3 F3E3 E3E4"/>
    </vehicle>
    <vehicle id="veh152" depart="1520.00" departLane="best" departSpeed="max">
        <route edges="B8A8 A8A7 A7A6 A6A5 A5A4 A4A3 A3B3 B3C3 C3D3 D3D4"/>
    </vehicle>
    <vehicle id="veh153" depart="1530.00" departLane="best" departSpeed="max">
        <route edges="B4B5 B5B6 B6C6 C6D6 D6E6 E6F6 F6G6 G6H6 H6I6 I6I7 I7I8 I8I9"/>
    </vehicle>
    <vehicle id="veh154" depart="1540.00" departLane="best" departSpeed="max">
        <route edges="J4J5 J5I5 I5H5 H5G5 G5F5 F5F4 F4F3 F3E3 E3D3 D3C3 C3B3 B3C3"/>
    </vehicle>
    <vehicle id="veh155" depart="1550.00" departLane="best" departSpeed="max">
        <route edges="F9F8 F8F7 F7F6 F6F5 F5F4 F4F3 F3F2 F2F1 F1E1 E1E0"/>
    </vehicle>
    <vehicle id="veh156" depart="1560.00" departLane="best" departSpeed="max">
        <route edges="B3C3 C3C2 C2C1 C1C0 C0D0 D0E0"/>
    </vehicle>
    <vehicle id="veh157" depart="1570.00" departLane="best" departSpeed="max">
        <route edges="C6B6 B6B5 B5B4 B4B3 B3C3 C3D3 D3E3 E3F3 F3G3 G3H3 H3H4"/>
    </vehicle>
    <vehicle id="veh158" depart="1580.00" departLane="best" departSpeed="max">
        <route edges="I1J1 J1J2 J2I2 I2H2 H2G2 G2F2 F2E2 E2D2 D2C2 C2C1"/>
    </vehicle>
    <vehicle id="veh159" depart="1590.00" departLane="best" departSpeed="max">
        <route edges="C9C8 C8C7 C7D7 D7E7 E7F7 F7F6 F6F5 F5F4 F4E4"/>
    </vehicle>
    <vehicle id="veh160" depart="1600.00" departLane="best" departSpeed="max">
        <route edges="C8C7 C7D7 D7E7 E7F7 F7G7"/>
    </vehicle>
    <vehicle id="veh161" depart="1610.00" departLane="best" departSpeed="max">
        <route edges="C6C5 C5D5 D5D6 D6D7 D7E7 E7F7 F7G7 G7G6"/>
    </vehicle>
    <vehicle id="veh162" depart="1620.00" departLane="best" departSpeed="max">
        <route edges="J6J5 J5J4 J4I4 I4H4 H4G4 G4F4 F4F3"/>
    </vehicle>
    <vehicle id="veh163" depart="1630.00" departLane="best" departSpeed="max">
        <route edges="E8F8 F8F7 F7F6 F6F5 F5F4 F4F3 F3G3 G3H3 H3I3 I3J3"/>
    </vehicle>
    <vehicle id="veh164" depart="1640.00" departLane="best" departSpeed="max">
        <route edges="B2C2 C2C3 C3C4 C4C5 C5C6 C6C7 C7C8 C8D8 D8E8 E8F8 F8G8 G8H8 H8I8"/>
    </vehicle>
    <vehicle id="veh165" depart="1650.00" departLane="best" departSpeed="max">
        <route edges="B3C3 C3D3 D3E3 E3F3 F3G3 G3H3 H3H4"/>
    </vehicle>
    <vehicle id="veh166" depart="1660.00" departLane="best" departSpeed="max">
        <route edges="F4F3 F3G3 G3G4 G4G5 G5H5 H5I5 I5J5 J5J4"/>
    </vehicle>
    <vehicle id="veh167" depart="1670.00" departLane="best" departSpeed="max">
        <route edges="B5B6 B6C6 C6D6 D6E6 E6F6 F6F5 F5F4 F4F3 F3F2 F2F1 F1F0 F0E0"/>
    </vehicle>
    <vehicle id="veh168" depart="1680.00" departLane="best" departSpeed="max">
        <route edges="F6G6 G6G5 G5F5 F5E5 E5D5 D5D4 D4D3 D3D2 D2D1"/>
    </vehicle>
    <vehicle id="veh169" depart="1690.00" departLane="best" departSpeed="max">
        <route edges="F0F1 F1F2 F2F3 F3F4 F4F5 F5F6 F6E6 E6D6 D6D5"/>
    </vehicle>
    <vehicle id="veh170" depart="1700.00" departLane="best" departSpeed="max">
        <route edges="F2G2 G2G1 G1G0 G0F0 F0E0 E0D0 D0C0 C0B0 B0A0 A0A1"/>
    </vehicle>