<routes>
  <vType id="DEFAULT_VEHTYPE"
         accel="2.6" decel="4.5" sigma="0.5"
         length="5" minGap="2.5"
         maxSpeed="13.9"
         speedDev="0.1"/>
</routes>
