<?xml version="1.0" encoding="UTF-8"?>

<!-- generated on 2026-02-03T01:03:55.119398+00:00 by Eclipse SUMO netconvert 1.25.0
<netconvertConfiguration xmlns:xsi="http://www.w3.org/2001/XMLSchema-instance" xsi:noNamespaceSchemaLocation="http://sumo.dlr.de/xsd/netconvertConfiguration.xsd">

    <input>
        <sumo-net-file value="net.net.xml"/>
    </input>

    <output>
        <output-file value="net_offset.net.xml"/>
    </output>

    <processing>
        <geometry.min-radius.fix.railways value="false"/>
        <geometry.avoid-overlap value="false"/>
        <geometry.max-grade.fix value="false"/>
        <offset.disable-normalization value="true"/>
        <offset.x value="175"/>
        <offset.y value="230"/>
        <lefthand value="0"/>
    </processing>

    <junctions>
        <no-turnarounds value="true"/>
        <junctions.corner-detail value="5"/>
        <junctions.limit-turn-speed value="5.50"/>
        <rectangular-lane-cut value="0"/>
    </junctions>

    <pedestrian>
        <walkingareas value="0"/>
    </pedestrian>

</netconvertConfiguration>
-->

<net version="1.20" junctionCornerDetail="5" limitTurnSpeed="5.50" avoidOverlap="0" xmlns:xsi="http://www.w3.org/2001/XMLSchema-instance" xsi:noNamespaceSchemaLocation="http://sumo.dlr.de/xsd/net_file.xsd">

    <location netOffset="175.00,230.00" convBoundary="175.00,230.00,1175.00,1230.00" origBoundary="0.00,0.00,1000.00,1000.00" projParameter="!"/>

    <edge id=":A0_0" function="internal">
        <lane id=":A0_0_0" index="0" speed="6.08" length="7.74" shape="173.40,233.20 173.70,231.10 174.60,229.60 176.10,228.70 178.20,228.40"/>
    </edge>
    <edge id=":A0_1" function="internal">
        <lane id=":A0_1_0" index="0" speed="3.90" length="2.58" shape="178.20,231.60 177.50,231.70 177.00,232.00 176.70,232.50 176.60,233.20"/>
    </edge>
    <edge id=":A1_0" function="internal">
        <lane id=":A1_0_0" index="0" speed="60.00" length="14.40" shape="173.40,337.20 173.40,322.80"/>
    </edge>
    <edge id=":A1_1" function="internal">
        <lane id=":A1_1_0" index="0" speed="8.00" length="4.07" shape="173.40,337.20 173.95,333.35 174.04,333.20"/>
    </edge>
    <edge id=":A1_2" function="internal">
        <lane id=":A1_2_0" index="0" speed="3.65" length="1.44" shape="173.40,337.20 174.20,336.00"/>
    </edge>
    <edge id=":A1_9" function="internal">
        <lane id=":A1_9_0" index="0" speed="8.00" length="10.13" shape="174.04,333.20 175.60,330.60 178.35,328.95 182.20,328.40"/>
    </edge>
    <edge id=":A1_10" function="internal">
        <lane id=":A1_10_0" index="0" speed="3.65" length="3.23" shape="174.20,336.00 175.00,335.60 175.80,336.00 176.60,337.20"/>
    </edge>
    <edge id=":A1_3" function="internal">
        <lane id=":A1_3_0" index="0" speed="6.51" length="9.03" shape="182.20,331.60 179.75,331.95 178.00,333.00 176.95,334.75 176.60,337.20"/>
    </edge>
    <edge id=":A1_4" function="internal">
        <lane id=":A1_4_0" index="0" speed="8.00" length="14.19" shape="182.20,331.60 178.35,331.05 175.60,329.40 173.95,326.65 173.40,322.80"/>
    </edge>
    <edge id=":A1_5" function="internal">
        <lane id=":A1_5_0" index="0" speed="3.65" length="4.67" shape="182.20,331.60 181.00,330.80 180.60,330.00 181.00,329.20 182.20,328.40"/>
    </edge>
    <edge id=":A1_6" function="internal">
        <lane id=":A1_6_0" index="0" speed="6.51" length="9.03" shape="176.60,322.80 176.95,325.25 178.00,327.00 179.75,328.05 182.20,328.40"/>
    </edge>
    <edge id=":A1_7" function="internal">
        <lane id=":A1_7_0" index="0" speed="60.00" length="14.40" shape="176.60,322.80 176.60,337.20"/>
    </edge>
    <edge id=":A1_8" function="internal">
        <lane id=":A1_8_0" index="0" speed="3.65" length="1.44" shape="176.60,322.80 175.80,324.00"/>
    </edge>
    <edge id=":A1_11" function="internal">
        <lane id=":A1_11_0" index="0" speed="3.65" length="3.23" shape="175.80,324.00 175.00,324.40 174.20,324.00 173.40,322.80"/>
    </edge>
    <edge id=":A10_0" function="internal">
        <lane id=":A10_0_0" index="0" speed="6.08" length="7.74" shape="178.20,1231.60 176.10,1231.30 174.60,1230.40 173.70,1228.90 173.40,1226.80"/>
    </edge>
    <edge id=":A10_1" function="internal">
        <lane id=":A10_1_0" index="0" speed="3.90" length="2.58" shape="176.60,1226.80 176.70,1227.50 177.00,1228.00 177.50,1228.30 178.20,1228.40"/>
    </edge>
    <edge id=":A2_0" function="internal">
        <lane id=":A2_0_0" index="0" speed="60.00" length="14.40" shape="173.40,437.20 173.40,422.80"/>
    </edge>
    <edge id=":A2_1" function="internal">
        <lane id=":A2_1_0" index="0" speed="8.00" length="4.07" shape="173.40,437.20 173.95,433.35 174.04,433.20"/>
    </edge>
    <edge id=":A2_2" function="internal">
        <lane id=":A2_2_0" index="0" speed="3.65" length="1.44" shape="173.40,437.20 174.20,436.00"/>
    </edge>
    <edge id=":A2_9" function="internal">
        <lane id=":A2_9_0" index="0" speed="8.00" length="10.13" shape="174.04,433.20 175.60,430.60 178.35,428.95 182.20,428.40"/>
    </edge>
    <edge id=":A2_10" function="internal">
        <lane id=":A2_10_0" index="0" speed="3.65" length="3.23" shape="174.20,436.00 175.00,435.60 175.80,436.00 176.60,437.20"/>
    </edge>
    <edge id=":A2_3" function="internal">
        <lane id=":A2_3_0" index="0" speed="6.51" length="9.03" shape="182.20,431.60 179.75,431.95 178.00,433.00 176.95,434.75 176.60,437.20"/>
    </edge>
    <edge id=":A2_4" function="internal">
        <lane id=":A2_4_0" index="0" speed="8.00" length="14.19" shape="182.20,431.60 178.35,431.05 175.60,429.40 173.95,426.65 173.40,422.80"/>
    </edge>
    <edge id=":A2_5" function="internal">
        <lane id=":A2_5_0" index="0" speed="3.65" length="4.67" shape="182.20,431.60 181.00,430.80 180.60,430.00 181.00,429.20 182.20,428.40"/>
    </edge>
    <edge id=":A2_6" function="internal">
        <lane id=":A2_6_0" index="0" speed="6.51" length="9.03" shape="176.60,422.80 176.95,425.25 178.00,427.00 179.75,428.05 182.20,428.40"/>
    </edge>
    <edge id=":A2_7" function="internal">
        <lane id=":A2_7_0" index="0" speed="60.00" length="14.40" shape="176.60,422.80 176.60,437.20"/>
    </edge>
    <edge id=":A2_8" function="internal">
        <lane id=":A2_8_0" index="0" speed="3.65" length="1.44" shape="176.60,422.80 175.80,424.00"/>
    </edge>
    <edge id=":A2_11" function="internal">
        <lane id=":A2_11_0" index="0" speed="3.65" length="3.23" shape="175.80,424.00 175.00,424.40 174.20,424.00 173.40,422.80"/>
    </edge>
    <edge id=":A3_0" function="internal">
        <lane id=":A3_0_0" index="0" speed="60.00" length="14.40" shape="173.40,537.20 173.40,522.80"/>
    </edge>
    <edge id=":A3_1" function="internal">
        <lane id=":A3_1_0" index="0" speed="8.00" length="4.07" shape="173.40,537.20 173.95,533.35 174.04,533.20"/>
    </edge>
    <edge id=":A3_2" function="internal">
        <lane id=":A3_2_0" index="0" speed="3.65" length="1.44" shape="173.40,537.20 174.20,536.00"/>
    </edge>
    <edge id=":A3_9" function="internal">
        <lane id=":A3_9_0" index="0" speed="8.00" length="10.13" shape="174.04,533.20 175.60,530.60 178.35,528.95 182.20,528.40"/>
    </edge>
    <edge id=":A3_10" function="internal">
        <lane id=":A3_10_0" index="0" speed="3.65" length="3.23" shape="174.20,536.00 175.00,535.60 175.80,536.00 176.60,537.20"/>
    </edge>
    <edge id=":A3_3" function="internal">
        <lane id=":A3_3_0" index="0" speed="6.51" length="9.03" shape="182.20,531.60 179.75,531.95 178.00,533.00 176.95,534.75 176.60,537.20"/>
    </edge>
    <edge id=":A3_4" function="internal">
        <lane id=":A3_4_0" index="0" speed="8.00" length="14.19" shape="182.20,531.60 178.35,531.05 175.60,529.40 173.95,526.65 173.40,522.80"/>
    </edge>
    <edge id=":A3_5" function="internal">
        <lane id=":A3_5_0" index="0" speed="3.65" length="4.67" shape="182.20,531.60 181.00,530.80 180.60,530.00 181.00,529.20 182.20,528.40"/>
    </edge>
    <edge id=":A3_6" function="internal">
        <lane id=":A3_6_0" index="0" speed="6.51" length="9.03" shape="176.60,522.80 176.95,525.25 178.00,527.00 179.75,528.05 182.20,528.40"/>
    </edge>
    <edge id=":A3_7" function="internal">
        <lane id=":A3_7_0" index="0" speed="60.00" length="14.40" shape="176.60,522.80 176.60,537.20"/>
    </edge>
    <edge id=":A3_8" function="internal">
        <lane id=":A3_8_0" index="0" speed="3.65" length="1.44" shape="176.60,522.80 175.80,524.00"/>
    </edge>
    <edge id=":A3_11" function="internal">
        <lane id=":A3_11_0" index="0" speed="3.65" length="3.23" shape="175.80,524.00 175.00,524.40 174.20,524.00 173.40,522.80"/>
    </edge>
    <edge id=":A4_0" function="internal">
        <lane id=":A4_0_0" index="0" speed="60.00" length="14.40" shape="173.40,637.20 173.40,622.80"/>
    </edge>
    <edge id=":A4_1" function="internal">
        <lane id=":A4_1_0" index="0" speed="8.00" length="4.07" shape="173.40,637.20 173.95,633.35 174.04,633.20"/>
    </edge>
    <edge id=":A4_2" function="internal">
        <lane id=":A4_2_0" index="0" speed="3.65" length="1.44" shape="173.40,637.20 174.20,636.00"/>
    </edge>
    <edge id=":A4_9" function="internal">
        <lane id=":A4_9_0" index="0" speed="8.00" length="10.13" shape="174.04,633.20 175.60,630.60 178.35,628.95 182.20,628.40"/>
    </edge>
    <edge id=":A4_10" function="internal">
        <lane id=":A4_10_0" index="0" speed="3.65" length="3.23" shape="174.20,636.00 175.00,635.60 175.80,636.00 176.60,637.20"/>
    </edge>
    <edge id=":A4_3" function="internal">
        <lane id=":A4_3_0" index="0" speed="6.51" length="9.03" shape="182.20,631.60 179.75,631.95 178.00,633.00 176.95,634.75 176.60,637.20"/>
    </edge>
    <edge id=":A4_4" function="internal">
        <lane id=":A4_4_0" index="0" speed="8.00" length="14.19" shape="182.20,631.60 178.35,631.05 175.60,629.40 173.95,626.65 173.40,622.80"/>
    </edge>
    <edge id=":A4_5" function="internal">
        <lane id=":A4_5_0" index="0" speed="3.65" length="4.67" shape="182.20,631.60 181.00,630.80 180.60,630.00 181.00,629.20 182.20,628.40"/>
    </edge>
    <edge id=":A4_6" function="internal">
        <lane id=":A4_6_0" index="0" speed="6.51" length="9.03" shape="176.60,622.80 176.95,625.25 178.00,627.00 179.75,628.05 182.20,628.40"/>
    </edge>
    <edge id=":A4_7" function="internal">
        <lane id=":A4_7_0" index="0" speed="60.00" length="14.40" shape="176.60,622.80 176.60,637.20"/>
    </edge>
    <edge id=":A4_8" function="internal">
        <lane id=":A4_8_0" index="0" speed="3.65" length="1.44" shape="176.60,622.80 175.80,624.00"/>
    </edge>
    <edge id=":A4_11" function="internal">
        <lane id=":A4_11_0" index="0" speed="3.65" length="3.23" shape="175.80,624.00 175.00,624.40 174.20,624.00 173.40,622.80"/>
    </edge>
    <edge id=":A5_0" function="internal">
        <lane id=":A5_0_0" index="0" speed="60.00" length="14.40" shape="173.40,737.20 173.40,722.80"/>
    </edge>
    <edge id=":A5_1" function="internal">
        <lane id=":A5_1_0" index="0" speed="8.00" length="4.07" shape="173.40,737.20 173.95,733.35 174.04,733.20"/>
    </edge>
    <edge id=":A5_2" function="internal">
        <lane id=":A5_2_0" index="0" speed="3.65" length="1.44" shape="173.40,737.20 174.20,736.00"/>
    </edge>
    <edge id=":A5_9" function="internal">
        <lane id=":A5_9_0" index="0" speed="8.00" length="10.13" shape="174.04,733.20 175.60,730.60 178.35,728.95 182.20,728.40"/>
    </edge>
    <edge id=":A5_10" function="internal">
        <lane id=":A5_10_0" index="0" speed="3.65" length="3.23" shape="174.20,736.00 175.00,735.60 175.80,736.00 176.60,737.20"/>
    </edge>
    <edge id=":A5_3" function="internal">
        <lane id=":A5_3_0" index="0" speed="6.51" length="9.03" shape="182.20,731.60 179.75,731.95 178.00,733.00 176.95,734.75 176.60,737.20"/>
    </edge>
    <edge id=":A5_4" function="internal">
        <lane id=":A5_4_0" index="0" speed="8.00" length="14.19" shape="182.20,731.60 178.35,731.05 175.60,729.40 173.95,726.65 173.40,722.80"/>
    </edge>
    <edge id=":A5_5" function="internal">
        <lane id=":A5_5_0" index="0" speed="3.65" length="4.67" shape="182.20,731.60 181.00,730.80 180.60,730.00 181.00,729.20 182.20,728.40"/>
    </edge>
    <edge id=":A5_6" function="internal">
        <lane id=":A5_6_0" index="0" speed="6.51" length="9.03" shape="176.60,722.80 176.95,725.25 178.00,727.00 179.75,728.05 182.20,728.40"/>
    </edge>
    <edge id=":A5_7" function="internal">
        <lane id=":A5_7_0" index="0" speed="60.00" length="14.40" shape="176.60,722.80 176.60,737.20"/>
    </edge>
    <edge id=":A5_8" function="internal">
        <lane id=":A5_8_0" index="0" speed="3.65" length="1.44" shape="176.60,722.80 175.80,724.00"/>
    </edge>
    <edge id=":A5_11" function="internal">
        <lane id=":A5_11_0" index="0" speed="3.65" length="3.23" shape="175.80,724.00 175.00,724.40 174.20,724.00 173.40,722.80"/>
    </edge>
    <edge id=":A6_0" function="internal">
        <lane id=":A6_0_0" index="0" speed="60.00" length="14.40" shape="173.40,837.20 173.40,822.80"/>
    </edge>
    <edge id=":A6_1" function="internal">
        <lane id=":A6_1_0" index="0" speed="8.00" length="4.07" shape="173.40,837.20 173.95,833.35 174.04,833.20"/>
    </edge>
    <edge id=":A6_2" function="internal">
        <lane id=":A6_2_0" index="0" speed="3.65" length="1.44" shape="173.40,837.20 174.20,836.00"/>
    </edge>
    <edge id=":A6_9" function="internal">
        <lane id=":A6_9_0" index="0" speed="8.00" length="10.13" shape="174.04,833.20 175.60,830.60 178.35,828.95 182.20,828.40"/>
    </edge>
    <edge id=":A6_10" function="internal">
        <lane id=":A6_10_0" index="0" speed="3.65" length="3.23" shape="174.20,836.00 175.00,835.60 175.80,836.00 176.60,837.20"/>
    </edge>
    <edge id=":A6_3" function="internal">
        <lane id=":A6_3_0" index="0" speed="6.51" length="9.03" shape="182.20,831.60 179.75,831.95 178.00,833.00 176.95,834.75 176.60,837.20"/>
    </edge>
    <edge id=":A6_4" function="internal">
        <lane id=":A6_4_0" index="0" speed="8.00" length="14.19" shape="182.20,831.60 178.35,831.05 175.60,829.40 173.95,826.65 173.40,822.80"/>
    </edge>
    <edge id=":A6_5" function="internal">
        <lane id=":A6_5_0" index="0" speed="3.65" length="4.67" shape="182.20,831.60 181.00,830.80 180.60,830.00 181.00,829.20 182.20,828.40"/>
    </edge>
    <edge id=":A6_6" function="internal">
        <lane id=":A6_6_0" index="0" speed="6.51" length="9.03" shape="176.60,822.80 176.95,825.25 178.00,827.00 179.75,828.05 182.20,828.40"/>
    </edge>
    <edge id=":A6_7" function="internal">
        <lane id=":A6_7_0" index="0" speed="60.00" length="14.40" shape="176.60,822.80 176.60,837.20"/>
    </edge>
    <edge id=":A6_8" function="internal">
        <lane id=":A6_8_0" index="0" speed="3.65" length="1.44" shape="176.60,822.80 175.80,824.00"/>
    </edge>
    <edge id=":A6_11" function="internal">
        <lane id=":A6_11_0" index="0" speed="3.65" length="3.23" shape="175.80,824.00 175.00,824.40 174.20,824.00 173.40,822.80"/>
    </edge>
    <edge id=":A7_0" function="internal">
        <lane id=":A7_0_0" index="0" speed="60.00" length="14.40" shape="173.40,937.20 173.40,922.80"/>
    </edge>
    <edge id=":A7_1" function="internal">
        <lane id=":A7_1_0" index="0" speed="8.00" length="4.07" shape="173.40,937.20 173.95,933.35 174.04,933.20"/>
    </edge>
    <edge id=":A7_2" function="internal">
        <lane id=":A7_2_0" index="0" speed="3.65" length="1.44" shape="173.40,937.20 174.20,936.00"/>
    </edge>
    <edge id=":A7_9" function="internal">
        <lane id=":A7_9_0" index="0" speed="8.00" length="10.13" shape="174.04,933.20 175.60,930.60 178.35,928.95 182.20,928.40"/>
    </edge>
    <edge id=":A7_10" function="internal">
        <lane id=":A7_10_0" index="0" speed="3.65" length="3.23" shape="174.20,936.00 175.00,935.60 175.80,936.00 176.60,937.20"/>
    </edge>
    <edge id=":A7_3" function="internal">
        <lane id=":A7_3_0" index="0" speed="6.51" length="9.03" shape="182.20,931.60 179.75,931.95 178.00,933.00 176.95,934.75 176.60,937.20"/>
    </edge>
    <edge id=":A7_4" function="internal">
        <lane id=":A7_4_0" index="0" speed="8.00" length="14.19" shape="182.20,931.60 178.35,931.05 175.60,929.40 173.95,926.65 173.40,922.80"/>
    </edge>
    <edge id=":A7_5" function="internal">
        <lane id=":A7_5_0" index="0" speed="3.65" length="4.67" shape="182.20,931.60 181.00,930.80 180.60,930.00 181.00,929.20 182.20,928.40"/>
    </edge>
    <edge id=":A7_6" function="internal">
        <lane id=":A7_6_0" index="0" speed="6.51" length="9.03" shape="176.60,922.80 176.95,925.25 178.00,927.00 179.75,928.05 182.20,928.40"/>
    </edge>
    <edge id=":A7_7" function="internal">
        <lane id=":A7_7_0" index="0" speed="60.00" length="14.40" shape="176.60,922.80 176.60,937.20"/>
    </edge>
    <edge id=":A7_8" function="internal">
        <lane id=":A7_8_0" index="0" speed="3.65" length="1.44" shape="176.60,922.80 175.80,924.00"/>
    </edge>
    <edge id=":A7_11" function="internal">
        <lane id=":A7_11_0" index="0" speed="3.65" length="3.23" shape="175.80,924.00 175.00,924.40 174.20,924.00 173.40,922.80"/>
    </edge>
    <edge id=":A8_0" function="internal">
        <lane id=":A8_0_0" index="0" speed="60.00" length="14.40" shape="173.40,1037.20 173.40,1022.80"/>
    </edge>
    <edge id=":A8_1" function="internal">
        <lane id=":A8_1_0" index="0" speed="8.00" length="4.07" shape="173.40,1037.20 173.95,1033.35 174.04,1033.20"/>
    </edge>
    <edge id=":A8_2" function="internal">
        <lane id=":A8_2_0" index="0" speed="3.65" length="1.44" shape="173.40,1037.20 174.20,1036.00"/>
    </edge>
    <edge id=":A8_9" function="internal">
        <lane id=":A8_9_0" index="0" speed="8.00" length="10.13" shape="174.04,1033.20 175.60,1030.60 178.35,1028.95 182.20,1028.40"/>
    </edge>
    <edge id=":A8_10" function="internal">
        <lane id=":A8_10_0" index="0" speed="3.65" length="3.23" shape="174.20,1036.00 175.00,1035.60 175.80,1036.00 176.60,1037.20"/>
    </edge>
    <edge id=":A8_3" function="internal">
        <lane id=":A8_3_0" index="0" speed="6.51" length="9.03" shape="182.20,1031.60 179.75,1031.95 178.00,1033.00 176.95,1034.75 176.60,1037.20"/>
    </edge>
    <edge id=":A8_4" function="internal">
        <lane id=":A8_4_0" index="0" speed="8.00" length="14.19" shape="182.20,1031.60 178.35,1031.05 175.60,1029.40 173.95,1026.65 173.40,1022.80"/>
    </edge>
    <edge id=":A8_5" function="internal">
        <lane id=":A8_5_0" index="0" speed="3.65" length="4.67" shape="182.20,1031.60 181.00,1030.80 180.60,1030.00 181.00,1029.20 182.20,1028.40"/>
    </edge>
    <edge id=":A8_6" function="internal">
        <lane id=":A8_6_0" index="0" speed="6.51" length="9.03" shape="176.60,1022.80 176.95,1025.25 178.00,1027.00 179.75,1028.05 182.20,1028.40"/>
    </edge>
    <edge id=":A8_7" function="internal">
        <lane id=":A8_7_0" index="0" speed="60.00" length="14.40" shape="176.60,1022.80 176.60,1037.20"/>
    </edge>
    <edge id=":A8_8" function="internal">
        <lane id=":A8_8_0" index="0" speed="3.65" length="1.44" shape="176.60,1022.80 175.80,1024.00"/>
    </edge>
    <edge id=":A8_11" function="internal">
        <lane id=":A8_11_0" index="0" speed="3.65" length="3.23" shape="175.80,1024.00 175.00,1024.40 174.20,1024.00 173.40,1022.80"/>
    </edge>
    <edge id=":A9_0" function="internal">
        <lane id=":A9_0_0" index="0" speed="60.00" length="14.40" shape="173.40,1137.20 173.40,1122.80"/>
    </edge>
    <edge id=":A9_1" function="internal">
        <lane id=":A9_1_0" index="0" speed="8.00" length="4.07" shape="173.40,1137.20 173.95,1133.35 174.04,1133.20"/>
    </edge>
    <edge id=":A9_2" function="internal">
        <lane id=":A9_2_0" index="0" speed="3.65" length="1.44" shape="173.40,1137.20 174.20,1136.00"/>
    </edge>
    <edge id=":A9_9" function="internal">
        <lane id=":A9_9_0" index="0" speed="8.00" length="10.13" shape="174.04,1133.20 175.60,1130.60 178.35,1128.95 182.20,1128.40"/>
    </edge>
    <edge id=":A9_10" function="internal">
        <lane id=":A9_10_0" index="0" speed="3.65" length="3.23" shape="174.20,1136.00 175.00,1135.60 175.80,1136.00 176.60,1137.20"/>
    </edge>
    <edge id=":A9_3" function="internal">
        <lane id=":A9_3_0" index="0" speed="6.51" length="9.03" shape="182.20,1131.60 179.75,1131.95 178.00,1133.00 176.95,1134.75 176.60,1137.20"/>
    </edge>
    <edge id=":A9_4" function="internal">
        <lane id=":A9_4_0" index="0" speed="8.00" length="14.19" shape="182.20,1131.60 178.35,1131.05 175.60,1129.40 173.95,1126.65 173.40,1122.80"/>
    </edge>
    <edge id=":A9_5" function="internal">
        <lane id=":A9_5_0" index="0" speed="3.65" length="4.67" shape="182.20,1131.60 181.00,1130.80 180.60,1130.00 181.00,1129.20 182.20,1128.40"/>
    </edge>
    <edge id=":A9_6" function="internal">
        <lane id=":A9_6_0" index="0" speed="6.51" length="9.03" shape="176.60,1122.80 176.95,1125.25 178.00,1127.00 179.75,1128.05 182.20,1128.40"/>
    </edge>
    <edge id=":A9_7" function="internal">
        <lane id=":A9_7_0" index="0" speed="60.00" length="14.40" shape="176.60,1122.80 176.60,1137.20"/>
    </edge>
    <edge id=":A9_8" function="internal">
        <lane id=":A9_8_0" index="0" speed="3.65" length="1.44" shape="176.60,1122.80 175.80,1124.00"/>
    </edge>
    <edge id=":A9_11" function="internal">
        <lane id=":A9_11_0" index="0" speed="3.65" length="3.23" shape="175.80,1124.00 175.00,1124.40 174.20,1124.00 173.40,1122.80"/>
    </edge>
    <edge id=":B0_0" function="internal">
        <lane id=":B0_0_0" index="0" speed="6.51" length="9.03" shape="273.40,237.20 273.05,234.75 272.00,233.00 270.25,231.95 267.80,231.60"/>
    </edge>
    <edge id=":B0_1" function="internal">
        <lane id=":B0_1_0" index="0" speed="8.00" length="14.19" shape="273.40,237.20 273.95,233.35 275.60,230.60 278.35,228.95 282.20,228.40"/>
    </edge>
    <edge id=":B0_2" function="internal">
        <lane id=":B0_2_0" index="0" speed="3.65" length="4.67" shape="273.40,237.20 274.20,236.00 275.00,235.60 275.80,236.00 276.60,237.20"/>
    </edge>
    <edge id=":B0_3" function="internal">
        <lane id=":B0_3_0" index="0" speed="6.51" length="9.03" shape="282.20,231.60 279.75,231.95 278.00,233.00 276.95,234.75 276.60,237.20"/>
    </edge>
    <edge id=":B0_4" function="internal">
        <lane id=":B0_4_0" index="0" speed="60.00" length="14.40" shape="282.20,231.60 267.80,231.60"/>
    </edge>
    <edge id=":B0_5" function="internal">
        <lane id=":B0_5_0" index="0" speed="3.65" length="1.44" shape="282.20,231.60 281.00,230.80"/>
    </edge>
    <edge id=":B0_9" function="internal">
        <lane id=":B0_9_0" index="0" speed="3.65" length="3.23" shape="281.00,230.80 280.60,230.00 281.00,229.20 282.20,228.40"/>
    </edge>
    <edge id=":B0_6" function="internal">
        <lane id=":B0_6_0" index="0" speed="60.00" length="14.40" shape="267.80,228.40 282.20,228.40"/>
    </edge>
    <edge id=":B0_7" function="internal">
        <lane id=":B0_7_0" index="0" speed="8.00" length="4.07" shape="267.80,228.40 271.65,228.95 271.80,229.04"/>
    </edge>
    <edge id=":B0_8" function="internal">
        <lane id=":B0_8_0" index="0" speed="3.65" length="1.44" shape="267.80,228.40 269.00,229.20"/>
    </edge>
    <edge id=":B0_10" function="internal">
        <lane id=":B0_10_0" index="0" speed="8.00" length="10.13" shape="271.80,229.04 274.40,230.60 276.05,233.35 276.60,237.20"/>
    </edge>
    <edge id=":B0_11" function="internal">
        <lane id=":B0_11_0" index="0" speed="3.65" length="3.23" shape="269.00,229.20 269.40,230.00 269.00,230.80 267.80,231.60"/>
    </edge>
    <edge id=":B1_0" function="internal">
        <lane id=":B1_0_0" index="0" speed="6.51" length="9.03" shape="273.40,337.20 273.05,334.75 272.00,333.00 270.25,331.95 267.80,331.60"/>
    </edge>
    <edge id=":B1_1" function="internal">
        <lane id=":B1_1_0" index="0" speed="60.00" length="14.40" shape="273.40,337.20 273.40,322.80"/>
    </edge>
    <edge id=":B1_2" function="internal">
        <lane id=":B1_2_0" index="0" speed="8.00" length="4.07" shape="273.40,337.20 273.95,333.35 274.04,333.20"/>
    </edge>
    <edge id=":B1_3" function="internal">
        <lane id=":B1_3_0" index="0" speed="3.65" length="1.44" shape="273.40,337.20 274.20,336.00"/>
    </edge>
    <edge id=":B1_16" function="internal">
        <lane id=":B1_16_0" index="0" speed="8.00" length="10.13" shape="274.04,333.20 275.60,330.60 278.35,328.95 282.20,328.40"/>
    </edge>
    <edge id=":B1_17" function="internal">
        <lane id=":B1_17_0" index="0" speed="3.65" length="3.23" shape="274.20,336.00 275.00,335.60 275.80,336.00 276.60,337.20"/>
    </edge>
    <edge id=":B1_4" function="internal">
        <lane id=":B1_4_0" index="0" speed="6.51" length="9.03" shape="282.20,331.60 279.75,331.95 278.00,333.00 276.95,334.75 276.60,337.20"/>
    </edge>
    <edge id=":B1_5" function="internal">
        <lane id=":B1_5_0" index="0" speed="60.00" length="14.40" shape="282.20,331.60 267.80,331.60"/>
    </edge>
    <edge id=":B1_6" function="internal">
        <lane id=":B1_6_0" index="0" speed="8.00" length="14.19" shape="282.20,331.60 278.35,331.05 275.60,329.40 273.95,326.65 273.40,322.80"/>
    </edge>
    <edge id=":B1_7" function="internal">
        <lane id=":B1_7_0" index="0" speed="3.65" length="4.67" shape="282.20,331.60 281.00,330.80 280.60,330.00 281.00,329.20 282.20,328.40"/>
    </edge>
    <edge id=":B1_8" function="internal">
        <lane id=":B1_8_0" index="0" speed="6.51" length="9.03" shape="276.60,322.80 276.95,325.25 278.00,327.00 279.75,328.05 282.20,328.40"/>
    </edge>
    <edge id=":B1_9" function="internal">
        <lane id=":B1_9_0" index="0" speed="60.00" length="14.40" shape="276.60,322.80 276.60,337.20"/>
    </edge>
    <edge id=":B1_10" function="internal">
        <lane id=":B1_10_0" index="0" speed="8.00" length="4.07" shape="276.60,322.80 276.05,326.65 275.96,326.80"/>
    </edge>
    <edge id=":B1_11" function="internal">
        <lane id=":B1_11_0" index="0" speed="3.65" length="1.44" shape="276.60,322.80 275.80,324.00"/>
    </edge>
    <edge id=":B1_18" function="internal">
        <lane id=":B1_18_0" index="0" speed="8.00" length="10.13" shape="275.96,326.80 274.40,329.40 271.65,331.05 267.80,331.60"/>
    </edge>
    <edge id=":B1_19" function="internal">
        <lane id=":B1_19_0" index="0" speed="3.65" length="3.23" shape="275.80,324.00 275.00,324.40 274.20,324.00 273.40,322.80"/>
    </edge>
    <edge id=":B1_12" function="internal">
        <lane id=":B1_12_0" index="0" speed="6.51" length="9.03" shape="267.80,328.40 270.25,328.05 272.00,327.00 273.05,325.25 273.40,322.80"/>
    </edge>
    <edge id=":B1_13" function="internal">
        <lane id=":B1_13_0" index="0" speed="60.00" length="14.40" shape="267.80,328.40 282.20,328.40"/>
    </edge>
    <edge id=":B1_14" function="internal">
        <lane id=":B1_14_0" index="0" speed="8.00" length="14.19" shape="267.80,328.40 271.65,328.95 274.40,330.60 276.05,333.35 276.60,337.20"/>
    </edge>
    <edge id=":B1_15" function="internal">
        <lane id=":B1_15_0" index="0" speed="3.65" length="4.67" shape="267.80,328.40 269.00,329.20 269.40,330.00 269.00,330.80 267.80,331.60"/>
    </edge>
    <edge id=":B10_0" function="internal">
        <lane id=":B10_0_0" index="0" speed="60.00" length="14.40" shape="282.20,1231.60 267.80,1231.60"/>
    </edge>
    <edge id=":B10_1" function="internal">
        <lane id=":B10_1_0" index="0" speed="8.00" length="4.07" shape="282.20,1231.60 278.35,1231.05 278.20,1230.96"/>
    </edge>
    <edge id=":B10_2" function="internal">
        <lane id=":B10_2_0" index="0" speed="3.65" length="1.44" shape="282.20,1231.60 281.00,1230.80"/>
    </edge>
    <edge id=":B10_9" function="internal">
        <lane id=":B10_9_0" index="0" speed="8.00" length="10.13" shape="278.20,1230.96 275.60,1229.40 273.95,1226.65 273.40,1222.80"/>
    </edge>
    <edge id=":B10_10" function="internal">
        <lane id=":B10_10_0" index="0" speed="3.65" length="3.23" shape="281.00,1230.80 280.60,1230.00 281.00,1229.20 282.20,1228.40"/>
    </edge>
    <edge id=":B10_3" function="internal">
        <lane id=":B10_3_0" index="0" speed="6.51" length="9.03" shape="276.60,1222.80 276.95,1225.25 278.00,1227.00 279.75,1228.05 282.20,1228.40"/>
    </edge>
    <edge id=":B10_4" function="internal">
        <lane id=":B10_4_0" index="0" speed="8.00" length="14.19" shape="276.60,1222.80 276.05,1226.65 274.40,1229.40 271.65,1231.05 267.80,1231.60"/>
    </edge>
    <edge id=":B10_5" function="internal">
        <lane id=":B10_5_0" index="0" speed="3.65" length="4.67" shape="276.60,1222.80 275.80,1224.00 275.00,1224.40 274.20,1224.00 273.40,1222.80"/>
    </edge>
    <edge id=":B10_6" function="internal">
        <lane id=":B10_6_0" index="0" speed="6.51" length="9.03" shape="267.80,1228.40 270.25,1228.05 272.00,1227.00 273.05,1225.25 273.40,1222.80"/>
    </edge>
    <edge id=":B10_7" function="internal">
        <lane id=":B10_7_0" index="0" speed="60.00" length="14.40" shape="267.80,1228.40 282.20,1228.40"/>
    </edge>
    <edge id=":B10_8" function="internal">
        <lane id=":B10_8_0" index="0" speed="3.65" length="1.44" shape="267.80,1228.40 269.00,1229.20"/>
    </edge>
    <edge id=":B10_11" function="internal">
        <lane id=":B10_11_0" index="0" speed="3.65" length="3.23" shape="269.00,1229.20 269.40,1230.00 269.00,1230.80 267.80,1231.60"/>
    </edge>
    <edge id=":B2_0" function="internal">
        <lane id=":B2_0_0" index="0" speed="6.51" length="9.03" shape="273.40,437.20 273.05,434.75 272.00,433.00 270.25,431.95 267.80,431.60"/>
    </edge>
    <edge id=":B2_1" function="internal">