<additional>
  <vType id="ue" accel="2.6" decel="4.5" sigma="0.5" length="5" maxSpeed="60"/>
</additional>
